<?xml version="1.0" encoding="UTF-8"?>
<!-- generated on 2022-10-26 03:14:35.324824 by $Id$ UNKNOWN
  options: -n /Users/nafiulhassan/veins-5.1/examples/veins/input/washingtondc/30/washingtondc.net.xml -s 0 -e 200 -o /Users/nafiulhassan/veins-5.1/examples/veins/input/washingtondc/seed-0/200/washingtondc.trips.xml
-->
<routes xmlns:xsi="http://www.w3.org/2001/XMLSchema-instance" xsi:noNamespaceSchemaLocation="http://sumo.dlr.de/xsd/routes_file.xsd">
    <trip id="0" depart="0.00" from="583698433#0" to="50429929"/>
    <trip id="1" depart="1.00" from="131076097#0" to="-6054355#1"/>
    <trip id="2" depart="2.00" from="323742930#1" to="130908289#11"/>
    <trip id="3" depart="3.00" from="509325914" to="-985426724"/>
    <trip id="4" depart="4.00" from="297380214#0" to="397327935#0"/>
    <trip id="5" depart="5.00" from="6056363#2" to="29961183#4"/>
    <trip id="6" depart="6.00" from="-698748856#1" to="50429926"/>
    <trip id="7" depart="7.00" from="436136929#2-AddedOnRampEdge" to="-590581593#1"/>
    <trip id="8" depart="8.00" from="6056366#0" to="983121553#1"/>
    <trip id="9" depart="9.00" from="520537745" to="6054895#3"/>
    <trip id="10" depart="10.00" from="1048676964#0" to="49887645#0"/>
    <trip id="11" depart="11.00" from="6054886#0" to="468469935#0"/>
    <trip id="12" depart="12.00" from="297368625#3" to="-352412093#2"/>
    <trip id="13" depart="13.00" from="202992522#0" to="423608853"/>
    <trip id="14" depart="14.00" from="6057204#0" to="864614824#0"/>
    <trip id="15" depart="15.00" from="297380214#3" to="589533584#0"/>
    <trip id="16" depart="16.00" from="-6056532#2" to="520463951#2"/>
    <trip id="17" depart="17.00" from="397316180#0" to="-130772954"/>
    <trip id="18" depart="18.00" from="48018654" to="130889760#0"/>
    <trip id="19" depart="19.00" from="535780677#0" to="468436769#0"/>
    <trip id="20" depart="20.00" from="-1054351818#1" to="298814317#0"/>
    <trip id="21" depart="21.00" from="589539522#0" to="-589539518#1"/>
    <trip id="22" depart="22.00" from="1054351817" to="589539522#0"/>
    <trip id="23" depart="23.00" from="-476103813#1" to="397319276"/>
    <trip id="24" depart="24.00" from="-575569267#16" to="86472738#0"/>
    <trip id="25" depart="25.00" from="520468343#2" to="203119345#0"/>
    <trip id="26" depart="26.00" from="-298832261#2" to="1049287312#0"/>
    <trip id="27" depart="27.00" from="321477125#4" to="6061387#3"/>
    <trip id="28" depart="28.00" from="-397304550" to="397315035#0"/>
    <trip id="29" depart="29.00" from="476103813#0" to="354436361#1"/>
    <trip id="30" depart="30.00" from="520546834#0" to="353283534#0"/>
    <trip id="31" depart="31.00" from="864614823#0" to="421076400#0"/>
    <trip id="32" depart="32.00" from="397363850#1" to="203025090#0"/>
    <trip id="33" depart="33.00" from="421075190#2" to="130889702#4"/>
    <trip id="34" depart="34.00" from="397327932#0" to="-920893151#1"/>
    <trip id="35" depart="35.00" from="-476103806" to="-469165488#1"/>
    <trip id="36" depart="36.00" from="436136927#0" to="468433797#0"/>
    <trip id="37" depart="37.00" from="297380214#0" to="-333922765#2"/>
    <trip id="38" depart="38.00" from="50511364#0" to="589551073#0"/>
    <trip id="39" depart="39.00" from="6057813#0" to="575569267#7"/>
    <trip id="40" depart="40.00" from="6054355#0" to="6057595#0"/>
    <trip id="41" depart="41.00" from="354436361#0" to="130889756#5"/>
    <trip id="42" depart="42.00" from="476103811" to="-6060903#1"/>
    <trip id="43" depart="43.00" from="520537747" to="583705854"/>
    <trip id="44" depart="44.00" from="6054255#0" to="397329578#0"/>
    <trip id="45" depart="45.00" from="696806631#0" to="397327118#0"/>
    <trip id="46" depart="46.00" from="26707982#0" to="468433804"/>
    <trip id="47" depart="47.00" from="988487226" to="6057421#2"/>
    <trip id="48" depart="48.00" from="509646035#2" to="-305660797#0"/>
    <trip id="49" depart="49.00" from="436136927#0" to="297401518#0"/>
    <trip id="50" depart="50.00" from="442066186#0" to="576620616"/>
    <trip id="51" depart="51.00" from="-589533563#2" to="49999716#3"/>
    <trip id="52" depart="52.00" from="-397316524#1" to="-520463951#1"/>
    <trip id="53" depart="53.00" from="510723128#1" to="1060936417"/>
    <trip id="54" depart="54.00" from="521198982" to="-352412093#2"/>
    <trip id="55" depart="55.00" from="-435424521#1" to="469165475"/>
    <trip id="56" depart="56.00" from="-203025089#1" to="397321701#0"/>
    <trip id="57" depart="57.00" from="6056366#0" to="347003329#0"/>
    <trip id="58" depart="58.00" from="468469939#0" to="-130908283#0"/>
    <trip id="59" depart="59.00" from="45838766#1" to="421259825#0"/>
    <trip id="60" depart="60.00" from="397327932#0" to="130889756#3"/>
    <trip id="61" depart="61.00" from="130802359#2" to="961869114#0"/>
    <trip id="62" depart="62.00" from="-155011691#1" to="-130802371#2"/>
    <trip id="63" depart="63.00" from="837279711#0" to="-469154540#1"/>
    <trip id="64" depart="64.00" from="-397321705#1" to="-50799230#2"/>
    <trip id="65" depart="65.00" from="520463956#0" to="6062876#0"/>
    <trip id="66" depart="66.00" from="-130802376#2" to="131076097#0"/>
    <trip id="67" depart="67.00" from="-352412093#2" to="-6054886#1"/>
    <trip id="68" depart="68.00" from="-520463951#1" to="466352083#0"/>
    <trip id="69" depart="69.00" from="130285121#0" to="-468469890#3"/>
    <trip id="70" depart="70.00" from="321444898" to="-202992520#6"/>
    <trip id="71" depart="71.00" from="-352412083" to="985067151"/>
    <trip id="72" depart="72.00" from="-494988146#2" to="130772928#0"/>
    <trip id="73" depart="73.00" from="50018069" to="543909823#0"/>
    <trip id="74" depart="74.00" from="6057581#2" to="-468433803"/>
    <trip id="75" depart="75.00" from="468469900#1" to="864614824#0"/>
    <trip id="76" depart="76.00" from="-296365351#2" to="468469897#0"/>
    <trip id="77" depart="77.00" from="583705854" to="125568108#2"/>
    <trip id="78" depart="78.00" from="-590581593#1" to="409551583"/>
    <trip id="79" depart="79.00" from="203119345#0" to="-468441158#1"/>
    <trip id="80" depart="80.00" from="297368625#0" to="130908290#3"/>
    <trip id="81" depart="81.00" from="397321703#0" to="321444898"/>
    <trip id="82" depart="82.00" from="1049226223#1" to="130285136#0"/>
    <trip id="83" depart="83.00" from="575569267#3" to="-590581593#1"/>
    <trip id="84" depart="84.00" from="397319276" to="-126303366#1"/>
    <trip id="85" depart="85.00" from="50428549" to="120478529#1"/>
    <trip id="86" depart="86.00" from="-203025089#2" to="-6063421#0"/>
    <trip id="87" depart="87.00" from="-575569267#6" to="696806634#0"/>
    <trip id="88" depart="88.00" from="130285133#0" to="-854143897#2"/>
    <trip id="89" depart="89.00" from="130772954" to="696198845"/>
    <trip id="90" depart="90.00" from="45838765#0" to="436136927#5"/>
    <trip id="91" depart="91.00" from="48018639#0" to="130889749#0"/>
    <trip id="92" depart="92.00" from="131052508#0" to="466359340#1"/>
    <trip id="93" depart="93.00" from="-120478418#2" to="-476103809#1"/>
    <trip id="94" depart="94.00" from="120478696#0" to="-575569267#2"/>
    <trip id="95" depart="95.00" from="460536376#0" to="130802362#1"/>
    <trip id="96" depart="96.00" from="589551086#0" to="397319278#0"/>
    <trip id="97" depart="97.00" from="131052508#0" to="130908283#1"/>
    <trip id="98" depart="98.00" from="476103804" to="131052386#6"/>
    <trip id="99" depart="99.00" from="468436769#0" to="-203025090#3"/>
    <trip id="100" depart="100.00" from="24238018#0" to="-6054355#1"/>
    <trip id="101" depart="101.00" from="-45838764#1" to="345633935#7"/>
    <trip id="102" depart="102.00" from="298814316" to="397317311#0"/>
    <trip id="103" depart="103.00" from="50431292#0" to="590581593#4"/>
    <trip id="104" depart="104.00" from="298832261#0" to="1036008535"/>
    <trip id="105" depart="105.00" from="297295058#0" to="520532349#0"/>
    <trip id="106" depart="106.00" from="589551086#0" to="520537743#0"/>
    <trip id="107" depart="107.00" from="-469165492#2" to="998360408#1"/>
    <trip id="108" depart="108.00" from="45838764#0" to="-305660797#1"/>
    <trip id="109" depart="109.00" from="49887648" to="983121554#7"/>
    <trip id="110" depart="110.00" from="130908289#5" to="468469900#4"/>
    <trip id="111" depart="111.00" from="1049303874#0" to="-509466050#2"/>
    <trip id="112" depart="112.00" from="48018646#2" to="-120478418#2"/>
    <trip id="113" depart="113.00" from="535546520#3" to="345633936#0"/>
    <trip id="114" depart="114.00" from="-347003330#3" to="-397318414#1"/>
    <trip id="115" depart="115.00" from="468433794" to="589539536#2"/>
    <trip id="116" depart="116.00" from="-6063421#5" to="935806772#0"/>
    <trip id="117" depart="117.00" from="-352412073" to="589533504#1"/>
    <trip id="118" depart="118.00" from="130908282" to="-29961175#1"/>
    <trip id="119" depart="119.00" from="-6061387#2" to="26572919#0"/>
    <trip id="120" depart="120.00" from="509646034#0" to="589533518#5"/>
    <trip id="121" depart="121.00" from="-397329577#1" to="333922526#0"/>
    <trip id="122" depart="122.00" from="468433796" to="126303361#0"/>
    <trip id="123" depart="123.00" from="589539536#3" to="-6061387#5"/>
    <trip id="124" depart="124.00" from="-130788227#1" to="-202992520#8"/>
    <trip id="125" depart="125.00" from="468469943#0" to="397316524#0"/>
    <trip id="126" depart="126.00" from="696198845" to="6063274#0"/>
    <trip id="127" depart="127.00" from="6056366#0" to="-202992522#3"/>
    <trip id="128" depart="128.00" from="50429921" to="469165488#0"/>
    <trip id="129" depart="129.00" from="468433805" to="476103813#0"/>
    <trip id="130" depart="130.00" from="6055387#0" to="45838766#0"/>
    <trip id="131" depart="131.00" from="130802361#0" to="352412073"/>
    <trip id="132" depart="132.00" from="-50511365#4" to="397329570"/>
    <trip id="133" depart="133.00" from="-126303361#1" to="-436136927#6"/>
    <trip id="134" depart="134.00" from="120478695#5" to="509325916"/>
    <trip id="135" depart="135.00" from="48018651#0" to="120478695#5"/>
    <trip id="136" depart="136.00" from="436271294#0" to="-202992522#1"/>
    <trip id="137" depart="137.00" from="-468433795#1" to="971624710"/>
    <trip id="138" depart="138.00" from="-923370378#4" to="130889758#12"/>
    <trip id="139" depart="139.00" from="397316180#0" to="-923370378#4"/>
    <trip id="140" depart="140.00" from="297382769#4" to="-575569267#2"/>
    <trip id="141" depart="141.00" from="-203119343" to="-468469890#1"/>
    <trip id="142" depart="142.00" from="347003226" to="-297380214#2"/>
    <trip id="143" depart="143.00" from="130908289#7" to="1052908406#0"/>
    <trip id="144" depart="144.00" from="131052508#2" to="-352412073"/>
    <trip id="145" depart="145.00" from="6056363#2" to="297296762#0"/>
    <trip id="146" depart="146.00" from="576620616" to="923370378#8"/>
    <trip id="147" depart="147.00" from="126303361#3" to="297380210#2"/>
    <trip id="148" depart="148.00" from="470165122" to="131076097#1"/>
    <trip id="149" depart="149.00" from="-998360408#3" to="50009629#0"/>
    <trip id="150" depart="150.00" from="6054254#0" to="6057581#2"/>
    <trip id="151" depart="151.00" from="439875857#0" to="130802359#2"/>
    <trip id="152" depart="152.00" from="924793627#0" to="45838764#0"/>
    <trip id="153" depart="153.00" from="-297296751#2" to="-305660797#4"/>
    <trip id="154" depart="154.00" from="50429923" to="-296365924#2"/>
    <trip id="155" depart="155.00" from="-125568108#9" to="130889758#0"/>
    <trip id="156" depart="156.00" from="345633935#0" to="237743944#0"/>
    <trip id="157" depart="157.00" from="298815729#0" to="397327937#0"/>
    <trip id="158" depart="158.00" from="468469935#0" to="131052512#3"/>
    <trip id="159" depart="159.00" from="130788227#0" to="985067151"/>
    <trip id="160" depart="160.00" from="-6056532#2" to="50797098#0"/>
    <trip id="161" depart="161.00" from="202992520#2" to="130772928#0"/>
    <trip id="162" depart="162.00" from="-297294791#2" to="589533582"/>
    <trip id="163" depart="163.00" from="476103804" to="6054895#5"/>
    <trip id="164" depart="164.00" from="292148139#0" to="468469900#0"/>
    <trip id="165" depart="165.00" from="-397318411#1" to="130889758#6"/>
    <trip id="166" depart="166.00" from="-50511365#3" to="-202992522#3"/>
    <trip id="167" depart="167.00" from="696737929#1" to="-509645504#3"/>
    <trip id="168" depart="168.00" from="-435424521#1" to="-47916249#2"/>
    <trip id="169" depart="169.00" from="130889702#0" to="354436361#0"/>
    <trip id="170" depart="170.00" from="-436136927#5" to="985426724"/>
    <trip id="171" depart="171.00" from="983121553#1" to="-436136927#1"/>
    <trip id="172" depart="172.00" from="130908290#4" to="468469915#1"/>
    <trip id="173" depart="173.00" from="589905511#0" to="298825115#1"/>
    <trip id="174" depart="174.00" from="6057544#3" to="1049842802#0"/>
    <trip id="175" depart="175.00" from="29961183#2" to="298832240"/>
    <trip id="176" depart="176.00" from="468469894#0" to="-50260020#1"/>
    <trip id="177" depart="177.00" from="435424520#0" to="-513235538#2"/>
    <trip id="178" depart="178.00" from="126303354#0" to="837279711#2"/>
    <trip id="179" depart="179.00" from="6054886#0" to="520537749-AddedOnRampEdge"/>
    <trip id="180" depart="180.00" from="-148762106#2" to="-436136927#1"/>
    <trip id="181" depart="181.00" from="-6054255#6" to="50799689#0"/>
    <trip id="182" depart="182.00" from="583698431#0" to="397327934#0"/>
    <trip id="183" depart="183.00" from="48018651#0" to="520468343#0"/>
    <trip id="184" depart="184.00" from="-297368625#2" to="-305660797#4"/>
    <trip id="185" depart="185.00" from="589539534#0" to="-202992520#6"/>
    <trip id="186" depart="186.00" from="-520532363" to="-202992520#8"/>
    <trip id="187" depart="187.00" from="-130788167#0" to="575569268"/>
    <trip id="188" depart="188.00" from="120478529#1" to="-466359338#1"/>
    <trip id="189" depart="189.00" from="-436136927#1" to="468433796"/>
    <trip id="190" depart="190.00" from="920893151#0" to="29961183#4"/>
    <trip id="191" depart="191.00" from="6054895#3" to="29961175#0"/>
    <trip id="192" depart="192.00" from="397327118#0" to="468469900#4"/>
    <trip id="193" depart="193.00" from="520532349#0" to="50429929"/>
    <trip id="194" depart="194.00" from="987878092" to="50429906"/>
    <trip id="195" depart="195.00" from="6055727#0" to="-50511365#1"/>
    <trip id="196" depart="196.00" from="353283534#1" to="421037430#0"/>
    <trip id="197" depart="197.00" from="537114618#0" to="297380214#3"/>
    <trip id="198" depart="198.00" from="509645504#1" to="130889749#2"/>
    <trip id="199" depart="199.00" from="397360055#0" to="583705856#1"/>
</routes>
