<?xml version="1.0" encoding="UTF-8"?>
<!-- generated on 2022-10-26 03:15:26.517529 by $Id$ UNKNOWN
  options: -n /Users/nafiulhassan/veins-5.1/examples/veins/input/washingtondc/30/washingtondc.net.xml -s 13 -e 100 -o /Users/nafiulhassan/veins-5.1/examples/veins/input/washingtondc/seed-13/100/washingtondc.trips.xml
-->
<routes xmlns:xsi="http://www.w3.org/2001/XMLSchema-instance" xsi:noNamespaceSchemaLocation="http://sumo.dlr.de/xsd/routes_file.xsd">
    <trip id="0" depart="0.00" from="-6055551#1" to="468469939#0"/>
    <trip id="1" depart="1.00" from="469154542" to="583705854"/>
    <trip id="2" depart="2.00" from="-469165488#1" to="-535546520#4"/>
    <trip id="3" depart="3.00" from="-435424522#1" to="-520532363"/>
    <trip id="4" depart="4.00" from="50260020#2" to="-397327939#1"/>
    <trip id="5" depart="5.00" from="352412073" to="-509466050#2"/>
    <trip id="6" depart="6.00" from="-983121553#2" to="146537579#0"/>
    <trip id="7" depart="7.00" from="575569267#3" to="421734517#0"/>
    <trip id="8" depart="8.00" from="-130788158#1" to="-6060903#1"/>
    <trip id="9" depart="9.00" from="-435424521#1" to="589539523#0"/>
    <trip id="10" depart="10.00" from="520537744" to="520463956#0"/>
    <trip id="11" depart="11.00" from="537114618#2" to="50428539#6"/>
    <trip id="12" depart="12.00" from="696806631#0" to="509326776#0"/>
    <trip id="13" depart="13.00" from="-6054255#6" to="583705855"/>
    <trip id="14" depart="14.00" from="298814315#0" to="50429925"/>
    <trip id="15" depart="15.00" from="397319283" to="131520273"/>
    <trip id="16" depart="16.00" from="130788192#0" to="146537575#0"/>
    <trip id="17" depart="17.00" from="1049253134" to="-397318411#1"/>
    <trip id="18" depart="18.00" from="535520845#0" to="509646035#2"/>
    <trip id="19" depart="19.00" from="983121554#4" to="469157092"/>
    <trip id="20" depart="20.00" from="397317307#0" to="50429908"/>
    <trip id="21" depart="21.00" from="-397329580#1" to="468469900#0"/>
    <trip id="22" depart="22.00" from="237743944#0" to="-468444094#1"/>
    <trip id="23" depart="23.00" from="-50260020#7" to="333922766#0"/>
    <trip id="24" depart="24.00" from="-6053702#1" to="296365351#2"/>
    <trip id="25" depart="25.00" from="423608853" to="130889758#2"/>
    <trip id="26" depart="26.00" from="-397327939#1" to="297759292#0"/>
    <trip id="27" depart="27.00" from="-543909823#1" to="-537114618#8"/>
    <trip id="28" depart="28.00" from="-47916247#2" to="130788167#1"/>
    <trip id="29" depart="29.00" from="-297382769#6" to="466359342#0"/>
    <trip id="30" depart="30.00" from="696806637#0" to="130889755#0"/>
    <trip id="31" depart="31.00" from="48018653" to="6061387#3"/>
    <trip id="32" depart="32.00" from="-202992524#2" to="-421290235#2"/>
    <trip id="33" depart="33.00" from="520532361#0" to="543909823#0"/>
    <trip id="34" depart="34.00" from="466349886#0" to="-466352083#1"/>
    <trip id="35" depart="35.00" from="131052386#6" to="589539519#2"/>
    <trip id="36" depart="36.00" from="590605528#3" to="516085384#0"/>
    <trip id="37" depart="37.00" from="-50422161" to="589533504#0"/>
    <trip id="38" depart="38.00" from="130802372#0" to="47916248#0"/>
    <trip id="39" depart="39.00" from="-397360056#2" to="921887474#0"/>
    <trip id="40" depart="40.00" from="423602319#0" to="48018648#0"/>
    <trip id="41" depart="41.00" from="-50799230#6" to="435424522#0"/>
    <trip id="42" depart="42.00" from="397329570" to="397354452#0"/>
    <trip id="43" depart="43.00" from="130772954" to="494988146#2"/>
    <trip id="44" depart="44.00" from="126303354#2" to="-923370378#9"/>
    <trip id="45" depart="45.00" from="-468433796" to="468469935#0"/>
    <trip id="46" depart="46.00" from="-397316176#1" to="-520532363"/>
    <trip id="47" depart="47.00" from="-297380211#3" to="466349883"/>
    <trip id="48" depart="48.00" from="397318410#0" to="353283601"/>
    <trip id="49" depart="49.00" from="-202992520#4" to="202992520#8"/>
    <trip id="50" depart="50.00" from="126303361#0" to="-345633936#1"/>
    <trip id="51" depart="51.00" from="-120478695#2" to="989844901#0"/>
    <trip id="52" depart="52.00" from="-397318416#2" to="-983121554#5"/>
    <trip id="53" depart="53.00" from="-6058793#2" to="409551583"/>
    <trip id="54" depart="54.00" from="-298832235#3" to="297294789#0"/>
    <trip id="55" depart="55.00" from="130788207#2" to="542269314#0"/>
    <trip id="56" depart="56.00" from="-125568108#1" to="120478529#0"/>
    <trip id="57" depart="57.00" from="29961168#0" to="920636360#0"/>
    <trip id="58" depart="58.00" from="333922766#0" to="297296762#3"/>
    <trip id="59" depart="59.00" from="468469890#2" to="-961869114#1"/>
    <trip id="60" depart="60.00" from="-131052297#9" to="29961164#0"/>
    <trip id="61" depart="61.00" from="6056366#3" to="50260020#2"/>
    <trip id="62" depart="62.00" from="-6055383#2" to="468469935#0"/>
    <trip id="63" depart="63.00" from="589533502#0" to="-6054255#8"/>
    <trip id="64" depart="64.00" from="397363850#1" to="130285133#0-AddedOnRampEdge"/>
    <trip id="65" depart="65.00" from="-589539518#3" to="-756406654#1"/>
    <trip id="66" depart="66.00" from="-50427058" to="126303365"/>
    <trip id="67" depart="67.00" from="-202992520#2" to="130889758#6"/>
    <trip id="68" depart="68.00" from="-321444899#2" to="50429929"/>
    <trip id="69" depart="69.00" from="421258870#0" to="-120478695#2"/>
    <trip id="70" depart="70.00" from="50797098#6" to="-469165494"/>
    <trip id="71" depart="71.00" from="297401518#0" to="397316180#0"/>
    <trip id="72" depart="72.00" from="120478695#4" to="-864614823#3"/>
    <trip id="73" depart="73.00" from="202992522#2" to="-397363850#0"/>
    <trip id="74" depart="74.00" from="589539518#0" to="-397316180#1"/>
    <trip id="75" depart="75.00" from="535546521#0" to="-513235538#2"/>
    <trip id="76" depart="76.00" from="1026906900" to="130889749#0"/>
    <trip id="77" depart="77.00" from="-131052512#3" to="-397327936#1"/>
    <trip id="78" depart="78.00" from="130788155#0" to="202992524#3"/>
    <trip id="79" depart="79.00" from="589551092#0" to="985426725#0"/>
    <trip id="80" depart="80.00" from="-202992524#4" to="347003330#0"/>
    <trip id="81" depart="81.00" from="-397327937#1" to="516085385"/>
    <trip id="82" depart="82.00" from="1052908406#0" to="6053702#0"/>
    <trip id="83" depart="83.00" from="397315035#0" to="-397327932#1"/>
    <trip id="84" depart="84.00" from="-121980352" to="-589551087#2"/>
    <trip id="85" depart="85.00" from="589539522#0" to="-436136927#4"/>
    <trip id="86" depart="86.00" from="297382770#0" to="130788207#4"/>
    <trip id="87" depart="87.00" from="126303362#0" to="514191882#0"/>
    <trip id="88" depart="88.00" from="-509466050#2" to="47920785#0"/>
    <trip id="89" depart="89.00" from="468450553#0" to="6062201#0"/>
    <trip id="90" depart="90.00" from="345633935#3" to="6057581#3"/>
    <trip id="91" depart="91.00" from="203119341#0" to="397321700#0"/>
    <trip id="92" depart="92.00" from="436271294#0" to="575569267#11"/>
    <trip id="93" depart="93.00" from="6054255#7" to="-397316522"/>
    <trip id="94" depart="94.00" from="-397360056#2" to="347003328#0"/>
    <trip id="95" depart="95.00" from="520537748" to="347003328#0"/>
    <trip id="96" depart="96.00" from="-985426725#1" to="837279711#0"/>
    <trip id="97" depart="97.00" from="-983121554#7" to="-321444900"/>
    <trip id="98" depart="98.00" from="-26572919#5" to="-131052297#5"/>
    <trip id="99" depart="99.00" from="49999716#2" to="-397303092#2"/>
</routes>
