<?xml version="1.0" encoding="iso-8859-1"?>

<!-- generated on 2021-10-31 03:01:20 by Eclipse SUMO netconvert Version 1.10.0
<configuration xmlns:xsi="http://www.w3.org/2001/XMLSchema-instance" xsi:noNamespaceSchemaLocation="http://sumo.dlr.de/xsd/netconvertConfiguration.xsd">

    <input>
        <type-files value="/opt/homebrew/opt/sumo/share/sumo/data/typemap/osmNetconvert.typ.xml"/>
        <osm-files value="baghdad.osm.xml"/>
    </input>

    <output>
        <output-file value="baghdad.net.xml"/>
    </output>

    <projection>
        <proj.utm value="true"/>
    </projection>

    <processing>
        <geometry.remove value="true"/>
        <roundabouts.guess value="true"/>
    </processing>

    <tls_building>
        <tls.discard-simple value="true"/>
        <tls.join value="true"/>
        <tls.guess-signals value="true"/>
    </tls_building>

    <ramp_guessing>
        <ramps.guess value="true"/>
    </ramp_guessing>

    <edge_removal>
        <remove-edges.by-vclass value="rail,rail_electric,bicycle,pedestrian"/>
        <remove-edges.by-type value="rail,rail_urban,rail_electric,railway.tram,railway.subway"/>
    </edge_removal>

    <junctions>
        <no-internal-links value="true"/>
        <junctions.join value="true"/>
    </junctions>

    <report>
        <aggregate-warnings value="5"/>
    </report>

</configuration>
-->

<net version="1.9" junctionCornerDetail="5" limitTurnSpeed="5.50" xmlns:xsi="http://www.w3.org/2001/XMLSchema-instance" xsi:noNamespaceSchemaLocation="http://sumo.dlr.de/xsd/net_file.xsd">

    <location netOffset="-438646.10,-3684339.81" convBoundary="0.00,0.00,3477.27,2177.55" origBoundary="44.339505,33.296505,44.378291,33.343551" projParameter="+proj=utm +zone=38 +ellps=WGS84 +datum=WGS84 +units=m +no_defs"/>

    <type id="highway.bridleway" priority="1" numLanes="1" speed="2.78" allow="pedestrian" oneway="1" width="2.00"/>
    <type id="highway.bus_guideway" priority="1" numLanes="1" speed="27.78" allow="bus" oneway="1"/>
    <type id="highway.cycleway" priority="1" numLanes="1" speed="8.33" allow="bicycle" oneway="0" width="1.00"/>
    <type id="highway.footway" priority="1" numLanes="1" speed="2.78" allow="pedestrian" oneway="1" width="2.00"/>
    <type id="highway.ford" priority="1" numLanes="1" speed="2.78" allow="army" oneway="0"/>
    <type id="highway.living_street" priority="2" numLanes="1" speed="2.78" disallow="tram rail_urban rail rail_electric rail_fast ship" oneway="0"/>
    <type id="highway.motorway" priority="14" numLanes="2" speed="39.44" allow="private emergency authority army vip passenger hov taxi bus coach delivery truck trailer motorcycle evehicle custom1 custom2" oneway="1"/>
    <type id="highway.motorway_link" priority="9" numLanes="1" speed="22.22" allow="private emergency authority army vip passenger hov taxi bus coach delivery truck trailer motorcycle evehicle custom1 custom2" oneway="1"/>
    <type id="highway.path" priority="1" numLanes="1" speed="2.78" allow="pedestrian bicycle" oneway="0" width="2.00"/>
    <type id="highway.pedestrian" priority="1" numLanes="1" speed="2.78" allow="pedestrian" oneway="1" width="2.00"/>
    <type id="highway.primary" priority="12" numLanes="2" speed="27.78" disallow="tram rail_urban rail rail_electric rail_fast ship" oneway="0"/>
    <type id="highway.primary_link" priority="7" numLanes="1" speed="22.22" disallow="tram rail_urban rail rail_electric rail_fast ship" oneway="0"/>
    <type id="highway.raceway" priority="15" numLanes="2" speed="83.33" allow="vip" oneway="0"/>
    <type id="highway.residential" priority="3" numLanes="1" speed="13.89" disallow="tram rail_urban rail rail_electric rail_fast ship" oneway="0"/>
    <type id="highway.secondary" priority="11" numLanes="1" speed="27.78" disallow="tram rail_urban rail rail_electric rail_fast ship" oneway="0"/>
    <type id="highway.secondary_link" priority="6" numLanes="1" speed="22.22" disallow="tram rail_urban rail rail_electric rail_fast ship" oneway="0"/>
    <type id="highway.service" priority="1" numLanes="1" speed="5.56" allow="pedestrian delivery bicycle" oneway="0"/>
    <type id="highway.stairs" priority="1" numLanes="1" speed="1.39" allow="pedestrian" oneway="1" width="2.00"/>
    <type id="highway.step" priority="1" numLanes="1" speed="1.39" allow="pedestrian" oneway="1" width="2.00"/>
    <type id="highway.steps" priority="1" numLanes="1" speed="1.39" allow="pedestrian" oneway="1" width="2.00"/>
    <type id="highway.tertiary" priority="10" numLanes="1" speed="22.22" disallow="tram rail_urban rail rail_electric rail_fast ship" oneway="0"/>
    <type id="highway.tertiary_link" priority="5" numLanes="1" speed="22.22" disallow="tram rail_urban rail rail_electric rail_fast ship" oneway="0"/>
    <type id="highway.track" priority="1" numLanes="1" speed="5.56" allow="pedestrian motorcycle moped bicycle" oneway="0"/>
    <type id="highway.trunk" priority="13" numLanes="2" speed="27.78" disallow="pedestrian bicycle tram rail_urban rail rail_electric rail_fast ship" oneway="0"/>
    <type id="highway.trunk_link" priority="8" numLanes="1" speed="22.22" disallow="pedestrian bicycle tram rail_urban rail rail_electric rail_fast ship" oneway="0"/>
    <type id="highway.unclassified" priority="4" numLanes="1" speed="13.89" disallow="tram rail_urban rail rail_electric rail_fast ship" oneway="0"/>
    <type id="highway.unsurfaced" priority="1" numLanes="1" speed="8.33" disallow="tram rail_urban rail rail_electric rail_fast ship" oneway="0"/>
    <type id="railway.highspeed" priority="21" numLanes="1" speed="69.44" allow="rail_fast" oneway="1"/>
    <type id="railway.light_rail" priority="19" numLanes="1" speed="27.78" allow="rail_urban" oneway="1"/>
    <type id="railway.preserved" priority="16" numLanes="1" speed="27.78" allow="rail" oneway="1"/>
    <type id="railway.rail" priority="20" numLanes="1" speed="44.44" allow="rail" oneway="1"/>
    <type id="railway.subway" priority="18" numLanes="1" speed="27.78" allow="rail_urban" oneway="1"/>
    <type id="railway.tram" priority="17" numLanes="1" speed="13.89" allow="tram" oneway="1"/>

    <edge id="-156002647#0" from="1683226235" to="2331645106" priority="1" type="highway.service" shape="2056.66,644.01 2065.11,657.24 2091.80,693.37 2101.34,701.76 2109.35,704.69 2119.35,706.61 2129.80,699.60 2218.84,640.89 2285.44,587.30 2309.34,576.21 2333.23,562.65 2347.14,550.14 2367.98,527.64 2377.39,513.67 2460.42,452.02 2471.35,444.00 2476.28,432.53 2497.08,320.56 2499.94,298.18 2494.37,286.77 2475.70,253.57 2482.90,205.81 2369.94,193.22">
        <lane id="-156002647#0_0" index="0" allow="pedestrian delivery bicycle" speed="5.56" length="895.44" shape="2060.79,647.51 2066.43,656.33 2092.99,692.28 2102.17,700.36 2109.77,703.14 2119.00,704.92 2128.91,698.27 2217.89,639.60 2284.59,585.93 2308.60,574.79 2332.29,561.35 2346.01,549.00 2366.72,526.64 2376.21,512.55 2459.46,450.73 2470.06,442.97 2474.74,432.06 2495.50,320.31 2498.29,298.45 2492.96,287.51 2474.04,253.88 2481.07,207.22 2374.52,195.35"/>
    </edge>
    <edge id="-156002647#1" from="1683226356" to="1683226235" priority="1" type="highway.service" shape="1680.62,602.64 1731.12,679.16 1739.69,692.04 1745.24,700.95 1756.73,701.38 1768.23,702.80 1768.06,756.98 1775.05,755.95 1800.52,756.28 1829.47,754.62 1860.94,754.43 1879.41,752.33 1890.86,747.28 1897.80,739.79 1905.24,730.79 1912.67,719.81 2012.59,644.63 2029.49,631.60 2041.47,629.54 2048.50,635.47 2056.66,644.01">
        <lane id="-156002647#1_0" index="0" allow="pedestrian delivery bicycle" speed="5.56" length="533.72" shape="1685.90,607.74 1732.46,678.28 1741.04,691.17 1746.15,699.38 1756.86,699.78 1769.83,701.38 1769.67,755.13 1774.94,754.35 1800.48,754.68 1829.42,753.02 1860.84,752.83 1878.98,750.77 1889.91,745.95 1896.60,738.73 1903.96,729.83 1911.49,718.69 2011.62,643.36 2028.83,630.09 2041.93,627.84 2049.60,634.30 2054.44,639.37"/>
    </edge>
    <edge id="-359840488#0" from="21650874" to="21650873" priority="3" type="highway.residential">
        <lane id="-359840488#0_0" index="0" disallow="tram rail_urban rail rail_electric rail_fast ship" speed="13.89" length="110.56" shape="2665.58,1086.77 2570.74,1071.40"/>
    </edge>
    <edge id="-359840488#1" from="21650891" to="21650874" priority="3" type="highway.residential">
        <lane id="-359840488#1_0" index="0" disallow="tram rail_urban rail rail_electric rail_fast ship" speed="13.89" length="110.44" shape="2774.60,1104.44 2679.84,1089.09"/>
    </edge>
    <edge id="-4081082#0" from="21650866" to="21650860" priority="3" type="highway.residential">
        <lane id="-4081082#0_0" index="0" disallow="tram rail_urban rail rail_electric rail_fast ship" speed="13.89" length="109.21" shape="2552.84,1292.10 2459.23,1278.18"/>
    </edge>
    <edge id="-4081082#1" from="21650865" to="21650866" priority="3" type="highway.residential">
        <lane id="-4081082#1_0" index="0" disallow="tram rail_urban rail rail_electric rail_fast ship" speed="13.89" length="113.38" shape="2665.03,1308.78 2567.30,1294.25"/>
    </edge>
    <edge id="-4081083#0" from="21650859" to="21652761" priority="3" type="highway.residential">
        <lane id="-4081083#0_0" index="0" disallow="tram rail_urban rail rail_electric rail_fast ship" speed="13.89" length="77.52" shape="2456.72,1205.92 2392.81,1197.29"/>
    </edge>
    <edge id="-4081083#1" from="21650867" to="21650859" priority="3" type="highway.residential">
        <lane id="-4081083#1_0" index="0" disallow="tram rail_urban rail rail_electric rail_fast ship" speed="13.89" length="110.18" shape="2565.86,1220.66 2471.21,1207.88"/>
    </edge>
    <edge id="-4081083#2" from="21650868" to="21650867" priority="3" type="highway.residential">
        <lane id="-4081083#2_0" index="0" disallow="tram rail_urban rail rail_electric rail_fast ship" speed="13.89" length="112.50" shape="2677.39,1235.72 2580.43,1222.62"/>
    </edge>
    <edge id="-4081084#0" from="21650817" to="21650816" priority="3" type="highway.residential">
        <lane id="-4081084#0_0" index="0" disallow="tram rail_urban rail rail_electric rail_fast ship" speed="13.89" length="74.77" shape="2823.70,1260.72 2764.10,1253.50"/>
    </edge>
    <edge id="-4081084#1" from="21651302" to="21650817" priority="3" type="highway.residential">
        <lane id="-4081084#1_0" index="0" disallow="tram rail_urban rail rail_electric rail_fast ship" speed="13.89" length="35.75" shape="2859.56,1265.06 2838.01,1262.45"/>
    </edge>
    <edge id="-4081084#2" from="21650818" to="21651302" priority="3" type="highway.residential">
        <lane id="-4081084#2_0" index="0" disallow="tram rail_urban rail rail_electric rail_fast ship" speed="13.89" length="38.09" shape="2897.00,1269.59 2873.87,1266.79"/>
    </edge>
    <edge id="-4081084#3" from="21650820" to="21650818" priority="3" type="highway.residential" shape="3012.28,1281.33 2974.50,1277.36 2904.53,1268.89">
        <lane id="-4081084#3_0" index="0" disallow="tram rail_urban rail rail_electric rail_fast ship" speed="13.89" length="108.47" shape="3012.11,1282.92 2974.32,1278.95 2911.30,1271.32"/>
    </edge>
    <edge id="-4081085#0" from="21650872" to="21650858" priority="3" type="highway.residential">
        <lane id="-4081085#0_0" index="0" disallow="tram rail_urban rail rail_electric rail_fast ship" speed="13.89" length="74.55" shape="2543.44,1142.06 2483.92,1133.17"/>
    </edge>
    <edge id="-4081085#1" from="21650871" to="21650872" priority="3" type="highway.residential">
        <lane id="-4081085#1_0" index="0" disallow="tram rail_urban rail rail_electric rail_fast ship" speed="13.89" length="36.45" shape="2579.29,1147.42 2557.68,1144.19"/>
    </edge>
    <edge id="-4081085#2" from="21650870" to="21650871" priority="3" type="highway.residential">
        <lane id="-4081085#2_0" index="0" disallow="tram rail_urban rail rail_electric rail_fast ship" speed="13.89" length="74.86" shape="2653.50,1158.52 2593.54,1149.55"/>
    </edge>
    <edge id="-4081085#3" from="21650869" to="21650870" priority="3" type="highway.residential">
        <lane id="-4081085#3_0" index="0" disallow="tram rail_urban rail rail_electric rail_fast ship" speed="13.89" length="36.60" shape="2689.58,1163.91 2667.74,1160.65"/>
    </edge>
    <edge id="-4081085#4" from="21650803" to="21650869" priority="3" type="highway.residential">
        <lane id="-4081085#4_0" index="0" disallow="tram rail_urban rail rail_electric rail_fast ship" speed="13.89" length="73.78" shape="2762.55,1174.82 2703.82,1166.04"/>
    </edge>
    <edge id="-4081085#5" from="21650804" to="21650803" priority="3" type="highway.residential">
        <lane id="-4081085#5_0" index="0" disallow="tram rail_urban rail rail_electric rail_fast ship" speed="13.89" length="75.63" shape="2837.49,1186.03 2776.92,1176.97"/>
    </edge>
    <edge id="-4081085#6" from="21650805" to="21650804" priority="3" type="highway.residential">
        <lane id="-4081085#6_0" index="0" disallow="tram rail_urban rail rail_electric rail_fast ship" speed="13.89" length="35.77" shape="2872.68,1191.29 2851.74,1188.16"/>
    </edge>
    <edge id="-4081085#7" from="21650806" to="21650805" priority="3" type="highway.residential">
        <lane id="-4081085#7_0" index="0" disallow="tram rail_urban rail rail_electric rail_fast ship" speed="13.89" length="36.65" shape="2909.11,1196.73 2886.93,1193.42"/>
    </edge>
    <edge id="-4081085#8" from="21650808" to="21650806" priority="3" type="highway.residential" shape="3007.16,1209.78 2989.46,1207.13 2916.39,1196.20">
        <lane id="-4081085#8_0" index="0" disallow="tram rail_urban rail rail_electric rail_fast ship" speed="13.89" length="91.79" shape="3006.93,1211.36 2989.22,1208.72 2923.35,1198.86"/>
    </edge>
    <edge id="-4081086" from="21650857" to="21652760" priority="3" type="highway.residential">
        <lane id="-4081086_0" index="0" disallow="tram rail_urban rail rail_electric rail_fast ship" speed="13.89" length="76.73" shape="2481.90,1058.40 2418.78,1049.50"/>
    </edge>
    <edge id="-4081087#0" from="21650854" to="21650853" priority="3" type="highway.residential">
        <lane id="-4081087#0_0" index="0" disallow="tram rail_urban rail rail_electric rail_fast ship" speed="13.89" length="109.84" shape="2677.75,1014.76 2583.47,1001.24"/>
    </edge>
    <edge id="-4081087#1" from="21650856" to="21650854" priority="3" type="highway.residential">
        <lane id="-4081087#1_0" index="0" disallow="tram rail_urban rail rail_electric rail_fast ship" speed="13.89" length="110.53" shape="2787.16,1030.44 2692.17,1016.83"/>
    </edge>
    <edge id="-4081088#0" from="21650828" to="21650829" priority="3" type="highway.residential">
        <lane id="-4081088#0_0" index="0" disallow="tram rail_urban rail rail_electric rail_fast ship" speed="13.89" length="74.55" shape="2593.44,847.82 2534.05,838.48"/>
    </edge>
    <edge id="-4081088#1" from="cluster_21650826_21650827" to="21650828" priority="3" type="highway.residential" shape="2714.98,865.33 2600.80,847.36">
        <lane id="-4081088#1_0" index="0" disallow="tram rail_urban rail rail_electric rail_fast ship" speed="13.89" length="121.91" shape="2707.64,865.79 2607.66,850.06"/>
    </edge>
    <edge id="-4081088#3" from="21650841" to="cluster_21650826_21650827" priority="3" type="highway.residential" shape="2822.83,882.29 2727.48,867.29">
        <lane id="-4081088#3_0" index="0" disallow="tram rail_urban rail rail_electric rail_fast ship" speed="13.89" length="102.86" shape="2815.39,882.74 2734.29,869.98"/>
    </edge>
    <edge id="-4081088#4" from="21650840" to="21650841" priority="3" type="highway.residential">
        <lane id="-4081088#4_0" index="0" disallow="tram rail_urban rail rail_electric rail_fast ship" speed="13.89" length="73.88" shape="2889.84,894.46 2829.62,884.98"/>
    </edge>
    <edge id="-4081088#5" from="21650838" to="21650840" priority="3" type="highway.residential" shape="3029.69,847.17 2985.69,898.57 2971.17,905.64 2895.82,893.79">
        <lane id="-4081088#5_0" index="0" disallow="tram rail_urban rail rail_electric rail_fast ship" speed="13.89" length="160.09" shape="3026.21,853.70 2986.69,899.86 2971.42,907.30 2905.15,896.87"/>
    </edge>
    <edge id="-4081089#0" from="21650822" to="21652764" priority="3" type="highway.residential">
        <lane id="-4081089#0_0" index="0" disallow="tram rail_urban rail rail_electric rail_fast ship" speed="13.89" length="77.00" shape="2506.17,915.97 2442.82,906.26"/>
    </edge>
    <edge id="-4081089#1" from="21650823" to="21650822" priority="3" type="highway.residential">
        <lane id="-4081089#1_0" index="0" disallow="tram rail_urban rail rail_electric rail_fast ship" speed="13.89" length="76.68" shape="2581.93,927.58 2520.51,918.16"/>
    </edge>
    <edge id="-4081089#2" from="cluster_21650824_21650825" to="21650823" priority="3" type="highway.residential" shape="2697.22,943.63 2589.38,927.10">
        <lane id="-4081089#2_0" index="0" disallow="tram rail_urban rail rail_electric rail_fast ship" speed="13.89" length="117.47" shape="2689.81,944.12 2596.17,929.76"/>
    </edge>
    <edge id="-4081089#4" from="21650815" to="cluster_21650824_21650825" priority="3" type="highway.residential" shape="2806.42,960.37 2713.77,946.17">
        <lane id="-4081089#4_0" index="0" disallow="tram rail_urban rail rail_electric rail_fast ship" speed="13.89" length="102.10" shape="2799.01,960.85 2720.71,948.85"/>
    </edge>
    <edge id="-4081089#5" from="21650814" to="21650815" priority="3" type="highway.residential">
        <lane id="-4081089#5_0" index="0" disallow="tram rail_urban rail rail_electric rail_fast ship" speed="13.89" length="77.60" shape="2875.68,972.61 2813.24,963.04"/>
    </edge>
    <edge id="-4081089#6" from="21650813" to="21650814" priority="3" type="highway.residential">
        <lane id="-4081089#6_0" index="0" disallow="tram rail_urban rail rail_electric rail_fast ship" speed="13.89" length="71.42" shape="2946.29,983.44 2889.91,974.80"/>
    </edge>
    <edge id="-4081089#7" from="21650812" to="21650813" priority="3" type="highway.residential" shape="3083.55,894.00 3016.88,973.41 3006.68,981.20 2991.81,988.80 2953.71,982.96">
        <lane id="-4081089#7_0" index="0" disallow="tram rail_urban rail rail_electric rail_fast ship" speed="13.89" length="171.77" shape="3080.15,900.55 3017.99,974.57 3007.53,982.55 2992.08,990.46 2960.52,985.62"/>
    </edge>
    <edge id="-4081098#0" from="21650860" to="21650861" priority="3" type="highway.residential">
        <lane id="-4081098#0_0" index="0" disallow="tram rail_urban rail rail_electric rail_fast ship" speed="13.89" length="74.95" shape="2452.66,1282.83 2441.28,1349.68"/>
    </edge>
    <edge id="-4081098#1" from="21650859" to="21650860" priority="3" type="highway.residential">
        <lane id="-4081098#1_0" index="0" disallow="tram rail_urban rail rail_electric rail_fast ship" speed="13.89" length="71.21" shape="2464.53,1212.79 2455.07,1268.63"/>
    </edge>
    <edge id="-4081098#10" from="21653029" to="21650831" priority="3" type="highway.residential">
        <lane id="-4081098#10_0" index="0" disallow="tram rail_urban rail rail_electric rail_fast ship" speed="13.89" length="44.42" shape="2572.43,579.33 2567.15,610.39"/>
    </edge>
    <edge id="-4081098#2" from="21650858" to="21650859" priority="3" type="highway.residential">
        <lane id="-4081098#2_0" index="0" disallow="tram rail_urban rail rail_electric rail_fast ship" speed="13.89" length="75.89" shape="2477.34,1137.81 2466.98,1198.38"/>
    </edge>
    <edge id="-4081098#3" from="21650857" to="21650858" priority="3" type="highway.residential">
        <lane id="-4081098#3_0" index="0" disallow="tram rail_urban rail rail_electric rail_fast ship" speed="13.89" length="73.72" shape="2489.70,1065.29 2479.76,1123.62"/>
    </edge>
    <edge id="-4081098#4" from="5862267730" to="21650857" priority="3" type="highway.residential">
        <lane id="-4081098#4_0" index="0" disallow="tram rail_urban rail rail_electric rail_fast ship" speed="13.89" length="37.75" shape="2496.05,1027.97 2492.12,1051.09"/>
    </edge>
    <edge id="-4081098#5" from="21650822" to="5862267730" priority="3" type="highway.residential">
        <lane id="-4081098#5_0" index="0" disallow="tram rail_urban rail rail_electric rail_fast ship" speed="13.89" length="106.65" shape="2513.94,922.90 2498.46,1013.77"/>
    </edge>
    <edge id="-4081098#6" from="21650829" to="21650822" priority="3" type="highway.residential">
        <lane id="-4081098#6_0" index="0" disallow="tram rail_urban rail rail_electric rail_fast ship" speed="13.89" length="80.86" shape="2527.52,843.10 2516.38,908.60"/>
    </edge>
    <edge id="-4081098#7" from="cluster_21650830_5052142782" to="21650829" priority="3" type="highway.residential" shape="2542.90,743.28 2527.15,835.77">
        <lane id="-4081098#7_0" index="0" disallow="tram rail_urban rail rail_electric rail_fast ship" speed="13.89" length="103.06" shape="2543.23,750.87 2529.94,828.90"/>
    </edge>
    <edge id="-4081098#9" from="21650831" to="cluster_21650830_5052142782" priority="3" type="highway.residential" shape="2564.36,617.22 2545.99,725.06">
        <lane id="-4081098#9_0" index="0" disallow="tram rail_urban rail rail_electric rail_fast ship" speed="13.89" length="118.64" shape="2564.73,624.58 2548.79,718.16"/>
    </edge>
    <edge id="-4081099#0" from="21650866" to="21650862" priority="3" type="highway.residential">
        <lane id="-4081099#0_0" index="0" disallow="tram rail_urban rail rail_electric rail_fast ship" speed="13.89" length="75.63" shape="2560.57,1299.06 2548.37,1366.29"/>
    </edge>
    <edge id="-4081099#1" from="21650867" to="21650866" priority="3" type="highway.residential">
        <lane id="-4081099#1_0" index="0" disallow="tram rail_urban rail rail_electric rail_fast ship" speed="13.89" length="72.72" shape="2573.62,1227.57 2563.19,1284.69"/>
    </edge>
    <edge id="-4081099#2" from="21650871" to="21650867" priority="3" type="highway.residential">
        <lane id="-4081099#2_0" index="0" disallow="tram rail_urban rail rail_electric rail_fast ship" speed="13.89" length="74.35" shape="2587.01,1154.39 2576.26,1213.11"/>
    </edge>
    <edge id="-4081100#0" from="21650865" to="21650864" priority="3" type="highway.residential">
        <lane id="-4081100#0_0" index="0" disallow="tram rail_urban rail rail_electric rail_fast ship" speed="13.89" length="76.30" shape="2672.82,1315.69 2661.29,1383.76"/>
    </edge>
    <edge id="-4081100#1" from="21650868" to="21650865" priority="3" type="highway.residential">
        <lane id="-4081100#1_0" index="0" disallow="tram rail_urban rail rail_electric rail_fast ship" speed="13.89" length="74.19" shape="2685.21,1242.59 2675.22,1301.50"/>
    </edge>
    <edge id="-4081100#2" from="21650869" to="21650868" priority="3" type="highway.residential">
        <lane id="-4081100#2_0" index="0" disallow="tram rail_urban rail rail_electric rail_fast ship" speed="13.89" length="72.73" shape="2697.36,1170.83 2687.61,1228.39"/>
    </edge>
    <edge id="-4081101#0" from="21650816" to="21651277" priority="3" type="highway.residential">
        <lane id="-4081101#0_0" index="0" disallow="tram rail_urban rail rail_electric rail_fast ship" speed="13.89" length="145.80" shape="2757.39,1258.25 2734.14,1395.04"/>
    </edge>
    <edge id="-4081101#1" from="21650803" to="21650816" priority="3" type="highway.residential">
        <lane id="-4081101#1_0" index="0" disallow="tram rail_urban rail rail_electric rail_fast ship" speed="13.89" length="77.81" shape="2770.33,1181.73 2759.80,1244.05"/>
    </edge>
    <edge id="-4081101#2" from="21650891" to="21650803" priority="3" type="highway.residential">
        <lane id="-4081101#2_0" index="0" disallow="tram rail_urban rail rail_electric rail_fast ship" speed="13.89" length="71.31" shape="2782.35,1111.41 2772.77,1167.41"/>
    </edge>
    <edge id="-4081101#3" from="21650856" to="21650891" priority="3" type="highway.residential">
        <lane id="-4081101#3_0" index="0" disallow="tram rail_urban rail rail_electric rail_fast ship" speed="13.89" length="75.19" shape="2794.95,1037.34 2784.77,1097.21"/>
    </edge>
    <edge id="-4081101#4" from="21650815" to="21650856" priority="3" type="highway.residential">
        <lane id="-4081101#4_0" index="0" disallow="tram rail_urban rail rail_electric rail_fast ship" speed="13.89" length="70.52" shape="2806.78,967.79 2797.36,1023.14"/>
    </edge>
    <edge id="-4081102#0" from="21650873" to="21650872" priority="3" type="highway.residential">
        <lane id="-4081102#0_0" index="0" disallow="tram rail_urban rail rail_electric rail_fast ship" speed="13.89" length="74.04" shape="2564.14,1075.98 2553.57,1134.63"/>
    </edge>
    <edge id="-4081102#1" from="5862267729" to="21650873" priority="3" type="highway.residential">
        <lane id="-4081102#1_0" index="0" disallow="tram rail_urban rail rail_electric rail_fast ship" speed="13.89" length="36.39" shape="2570.57,1040.26 2566.69,1061.80"/>
    </edge>
    <edge id="-4081102#2" from="21650853" to="5862267729" priority="3" type="highway.residential">
        <lane id="-4081102#2_0" index="0" disallow="tram rail_urban rail rail_electric rail_fast ship" speed="13.89" length="34.78" shape="2576.77,1005.87 2573.13,1026.09"/>
    </edge>
    <edge id="-4081102#3" from="21650823" to="21650853" priority="3" type="highway.residential">
        <lane id="-4081102#3_0" index="0" disallow="tram rail_urban rail rail_electric rail_fast ship" speed="13.89" length="72.67" shape="2589.66,934.55 2579.33,991.70"/>
    </edge>
    <edge id="-4081103#0" from="21650874" to="21650870" priority="3" type="highway.residential">
        <lane id="-4081103#0_0" index="0" disallow="tram rail_urban rail rail_electric rail_fast ship" speed="13.89" length="72.67" shape="2673.33,1093.74 2663.59,1151.10"/>
    </edge>
    <edge id="-4081103#1" from="21650854" to="21650874" priority="3" type="highway.residential">
        <lane id="-4081103#1_0" index="0" disallow="tram rail_urban rail rail_electric rail_fast ship" speed="13.89" length="73.17" shape="2685.54,1021.66 2675.75,1079.50"/>
    </edge>
    <edge id="-4081103#2" from="cluster_21650824_21650825" to="21650854" priority="3" type="highway.residential" shape="2697.22,943.63 2685.18,1014.21">
        <lane id="-4081103#2_0" index="0" disallow="tram rail_urban rail rail_electric rail_fast ship" speed="13.89" length="75.51" shape="2697.58,951.05 2687.99,1007.30"/>
    </edge>
    <edge id="-4081104" from="cluster_21650826_21650827" to="cluster_21650824_21650825" priority="3" type="highway.residential" shape="2727.48,867.29 2713.77,946.17">
        <lane id="-4081104_0" index="0" disallow="tram rail_urban rail rail_electric rail_fast ship" speed="13.89" length="86.28" shape="2727.81,874.71 2716.59,939.29"/>
    </edge>
    <edge id="-4081105" from="21650817" to="21651275" priority="3" type="highway.residential">
        <lane id="-4081105_0" index="0" disallow="tram rail_urban rail rail_electric rail_fast ship" speed="13.89" length="148.30" shape="2831.52,1267.56 2807.14,1406.36"/>
    </edge>
    <edge id="-4081106" from="21650818" to="21651270" priority="3" type="highway.residential" shape="2904.53,1268.89 2877.77,1417.27 2863.70,1495.29">
        <lane id="-4081106_0" index="0" disallow="tram rail_urban rail rail_electric rail_fast ship" speed="13.89" length="230.05" shape="2904.79,1276.45 2879.35,1417.55 2865.28,1495.58"/>
    </edge>
    <edge id="-4081108" from="21651302" to="21650805" priority="3" type="highway.residential">
        <lane id="-4081108_0" index="0" disallow="tram rail_urban rail rail_electric rail_fast ship" speed="13.89" length="74.75" shape="2866.47,1256.75 2877.26,1197.68"/>
    </edge>
    <edge id="-4081109" from="21650814" to="21650804" priority="3" type="highway.residential">
        <lane id="-4081109_0" index="0" disallow="tram rail_urban rail rail_electric rail_fast ship" speed="13.89" length="216.78" shape="2883.40,979.59 2847.63,1178.60"/>
    </edge>
    <edge id="-4081110" from="21650813" to="21650806" priority="3" type="highway.residential">
        <lane id="-4081110_0" index="0" disallow="tram rail_urban rail rail_electric rail_fast ship" speed="13.89" length="216.49" shape="2954.04,990.39 2919.22,1189.30"/>
    </edge>
    <edge id="-4081113" from="21650837" to="21650840" priority="3" type="highway.residential">
        <lane id="-4081113_0" index="0" disallow="tram rail_urban rail rail_electric rail_fast ship" speed="13.89" length="122.65" shape="2971.62,806.79 2903.31,887.42"/>
    </edge>
    <edge id="-4081114" from="21650842" to="21650841" priority="3" type="highway.residential">
        <lane id="-4081114_0" index="0" disallow="tram rail_urban rail rail_electric rail_fast ship" speed="13.89" length="72.90" shape="2832.99,817.30 2825.37,875.28"/>
    </edge>
    <edge id="-4081115#0" from="21650855" to="21650828" priority="3" type="highway.residential">
        <lane id="-4081115#0_0" index="0" disallow="tram rail_urban rail rail_electric rail_fast ship" speed="13.89" length="69.95" shape="2612.24,785.60 2603.51,840.49"/>
    </edge>
    <edge id="-4081115#1" from="5052142781" to="21650855" priority="3" type="highway.residential">
        <lane id="-4081115#1_0" index="0" disallow="tram rail_urban rail rail_electric rail_fast ship" speed="13.89" length="43.07" shape="2618.99,743.13 2614.50,771.38"/>
    </edge>
    <edge id="-4081115#2" from="21650844" to="5052142781" priority="3" type="highway.residential">
        <lane id="-4081115#2_0" index="0" disallow="tram rail_urban rail rail_electric rail_fast ship" speed="13.89" length="29.50" shape="2623.63,713.91 2621.25,728.91"/>
    </edge>
    <edge id="-4081115#3" from="21650832" to="21650844" priority="3" type="highway.residential">
        <lane id="-4081115#3_0" index="0" disallow="tram rail_urban rail rail_electric rail_fast ship" speed="13.89" length="78.31" shape="2635.93,636.57 2625.89,699.69"/>
    </edge>