<?xml version="1.0" encoding="iso-8859-1"?>

<!-- generated on 2021-10-31 03:01:33 by Eclipse SUMO polyconvert Version 1.10.0
<configuration xmlns:xsi="http://www.w3.org/2001/XMLSchema-instance" xsi:noNamespaceSchemaLocation="http://sumo.dlr.de/xsd/polyconvertConfiguration.xsd">

    <input>
        <net-file value="baghdad.net.xml"/>
        <osm-files value="baghdad.osm.xml"/>
    </input>

    <output>
        <output-file value="baghdad.poly.xml"/>
    </output>

    <processing>
        <poi-layer-offset value="5"/>
    </processing>

</configuration>
-->

<additional xmlns:xsi="http://www.w3.org/2001/XMLSchema-instance" xsi:noNamespaceSchemaLocation="http://sumo.dlr.de/xsd/additional_file.xsd">
    <location netOffset="-438646.10,-3684339.81" convBoundary="-107.06,-694.05,6798.28,5229.01" origBoundary="44.339505,33.290247,44.413978,33.343551" projParameter="+proj=utm +zone=38 +ellps=WGS84 +datum=WGS84 +units=m +no_defs"/>

    <poly id="982718768" type="building" color="255,230,230" fill="1" layer="-1.00" shape="2281.346358,596.485340 2288.142583,605.635330 2277.206842,613.906377 2270.159178,604.746836 2281.346358,596.485340"/>
    <poly id="982718769" type="building" color="255,230,230" fill="1" layer="-1.00" shape="2204.809941,616.830447 2214.617628,628.201672 2205.669754,635.717855 2195.863549,624.590549 2204.809941,616.830447"/>
    <poly id="982718770" type="building" color="255,230,230" fill="1" layer="-1.00" shape="2181.061230,612.506919 2191.376010,626.114654 2186.656952,629.369779 2176.584224,615.760575 2181.061230,612.506919"/>
    <poly id="982718771" type="building" color="255,230,230" fill="1" layer="-1.00" shape="2111.470335,707.627127 2110.303152,720.805881 2098.304619,719.637292 2099.471786,706.458536 2111.470335,707.627127"/>
    <poly id="982718772" type="building" color="255,230,230" fill="1" layer="-1.00" shape="2083.896774,650.130609 2090.694708,659.535460 2082.994649,665.547370 2075.945347,656.144058 2083.896774,650.130609"/>
    <poly id="982718773" type="building" color="255,230,230" fill="1" layer="-1.00" shape="2087.304737,634.942479 2102.154206,654.742396 2095.194322,659.995850 2080.344913,640.207030 2087.304737,634.942479"/>
    <poly id="982718813" type="building" color="255,230,230" fill="1" layer="-1.00" shape="1746.203543,678.296178 1746.421301,672.817744 1756.651277,672.511059 1756.645156,671.513245 1765.888293,671.212624 1766.194539,680.158150 1762.945421,680.178081 1762.986567,686.885611 1756.247845,687.181957 1756.240227,685.940232 1751.745095,686.211730 1751.470875,682.488099 1750.474727,682.494211 1750.171528,674.047592 1748.672651,674.056788 1746.203543,678.296178"/>
    <poly id="982718814" type="building" color="255,230,230" fill="1" layer="-1.00" shape="1692.219821,671.664783 1693.231408,672.656422 1697.438364,667.907420 1698.197020,668.645606 1702.911459,663.150645 1711.196384,670.550404 1706.731811,675.799908 1707.732520,676.536609 1703.514756,681.041753 1705.021257,682.274274 1700.553629,687.024874 1699.551355,686.033176 1696.821784,688.788488 1694.809490,687.060149 1687.074554,687.351574 1686.763673,677.663231 1692.219821,671.664783"/>
    <poly id="982718815" type="building" color="255,230,230" fill="1" layer="-1.00" shape="1593.491737,696.874229 1580.216527,690.990965 1589.826130,670.054554 1603.101362,675.937831 1593.491737,696.874229"/>
    <poly id="982718816" type="building" color="255,230,230" fill="1" layer="-1.00" shape="1532.591772,661.714430 1537.658291,674.100950 1526.448944,678.649226 1521.382344,666.251625 1532.591772,661.714430"/>
    <poly id="982721043" type="building" color="255,230,230" fill="1" layer="-1.00" shape="2013.068024,705.489180 2029.999574,738.447910 2006.349693,750.267229 1989.671003,717.562000 2013.068024,705.489180"/>
    <poly id="982721045" type="building" color="255,230,230" fill="1" layer="-1.00" shape="2207.548984,574.316412 2236.493581,612.413352 2225.056643,620.931428 2196.361839,582.577993 2207.548984,574.316412"/>
    <poly id="982721046" type="building" color="255,230,230" fill="1" layer="-1.00" shape="2038.441703,649.665200 2033.157758,642.734680 2043.101647,635.212254 2048.385589,642.142780 2050.626452,640.144484 2058.932374,651.025798 2056.447968,652.781659 2061.226115,659.216353 2051.280681,666.483764 2046.758430,660.790357 2048.491784,659.538005 2040.184300,648.401703 2038.441703,649.665200"/>
    <poly id="982721079" type="building" color="255,230,230" fill="1" layer="-1.00" shape="1978.144508,630.641975 1954.739754,641.473151 1928.241527,636.668127 1922.381783,617.811319 1933.829113,611.033515 1942.607548,616.944759 1960.555998,612.111846 1978.144508,630.641975"/>
    <poly id="982721080" type="building" color="255,230,230" fill="1" layer="-1.00" shape="1822.019573,703.176702 1836.085109,716.517165 1811.550500,746.492199 1780.646992,717.100902 1792.810064,704.098594 1802.845188,711.498786 1804.563279,707.762940 1814.302790,707.947160 1816.322669,710.917249 1822.019573,703.176702"/>
    <poly id="982721081" type="building" color="255,230,230" fill="1" layer="-1.00" shape="1850.970456,618.991303 1852.749457,664.715273 1827.785103,665.611058 1826.005985,619.887090 1850.970456,618.991303"/>
    <poly id="982721082" type="building" color="255,230,230" fill="1" layer="-1.00" shape="1802.799278,664.522421 1801.059839,664.777004 1799.553347,663.544468 1797.298878,663.314370 1795.038424,660.589680 1795.023198,658.106231 1792.263072,655.883530 1792.752139,653.651996 1790.989657,651.667099 1793.218098,649.169893 1793.452741,646.440993 1795.195308,645.177451 1795.164856,640.210554 1798.404678,640.190691 1801.879280,635.945152 1803.880895,635.932881 1806.388096,637.902129 1817.372206,637.590886 1818.185550,648.772928 1820.703617,650.997119 1820.717273,653.225571 1817.739352,656.481296 1818.005937,658.963204 1817.260947,660.453460 1811.513803,660.000845 1811.529024,662.484294 1809.778780,662.495022 1808.535818,663.245486 1807.550338,664.992224 1805.050756,664.264700 1804.060655,665.257534 1802.799278,664.522421"/>
    <poly id="982721083" type="building" color="255,230,230" fill="1" layer="-1.00" shape="1776.235483,649.030111 1776.997194,650.267211 1776.250714,651.513560 1776.764119,653.251108 1775.525715,654.744394 1775.036720,656.987016 1772.304060,659.243399 1770.060394,659.257160 1767.571287,661.755970 1765.326126,661.525822 1763.344504,663.278674 1760.824862,660.799501 1758.328336,660.570897 1756.820274,659.083371 1751.828717,658.870075 1751.810419,655.887719 1747.543782,652.432503 1747.530040,650.192964 1749.508669,647.952288 1749.190164,637.011134 1760.422579,636.199377 1762.911691,633.700566 1764.902433,633.433348 1768.422789,636.649229 1770.664895,636.380471 1772.168403,637.125182 1771.700691,642.837980 1774.456401,642.821079 1774.215711,644.563252 1774.968112,645.800409 1776.724479,646.787489 1776.235483,649.030111"/>
    <poly id="982721084" type="building" color="255,230,230" fill="1" layer="-1.00" shape="1735.043630,610.510733 1740.001797,603.761437 1734.464749,596.588709 1744.944606,596.025473 1744.926307,593.043117 1768.893191,591.909323 1769.462972,602.837848 1756.478767,603.416421 1756.768222,609.623501 1735.043630,610.510733"/>
    <poly id="982721085" type="building" color="255,230,230" fill="1" layer="-1.00" shape="1600.655809,644.642489 1613.929500,650.270785 1604.329032,672.703892 1591.055297,667.064523 1600.655809,644.642489"/>
    <poly id="982721086" type="building" color="255,230,230" fill="1" layer="-1.00" shape="1547.117569,668.077770 1567.142715,636.145194 1589.955200,650.174326 1569.920700,682.106913 1547.117569,668.077770"/>
    <poly id="982721087" type="building" color="255,230,230" fill="1" layer="-1.00" shape="1750.682502,553.991796 1750.706854,557.960879 1752.205749,557.951683 1753.039034,572.371072 1733.818654,573.231854 1733.523060,566.026961 1730.284710,566.290755 1729.411665,546.915614 1733.161999,546.637591 1732.017723,524.026641 1744.005870,523.454149 1745.160672,549.302510 1746.910937,549.291771 1747.192780,554.257126 1750.682502,553.991796"/>
    <poly id="982721089" type="building" color="255,230,230" fill="1" layer="-1.00" shape="1626.012878,544.069375 1630.023604,546.772180 1628.287106,549.022479 1631.352172,559.946746 1644.324166,557.372378 1645.622119,565.568961 1613.443456,571.232800 1611.895678,563.292764 1609.655058,563.805469 1604.378290,559.613681 1604.618952,557.871504 1596.137449,559.409362 1591.196893,526.632596 1600.426288,525.589060 1602.505867,538.248989 1615.471641,536.173548 1619.480941,538.643525 1621.464240,535.648862 1628.489603,541.071680 1626.012878,544.069375"/>
    <poly id="982721343" type="building" color="255,230,230" fill="1" layer="-1.00" shape="2172.419171,628.957580 2177.451656,635.889706 2130.712971,669.225573 2118.873329,652.899740 2129.320002,645.374337 2134.606917,652.803815 2138.331284,649.798647 2140.095180,652.027516 2148.549380,646.011056 2146.033131,642.545000 2156.720405,634.774243 2159.236653,638.240301 2172.419171,628.957580"/>
    <poly id="982721360" type="building" color="255,230,230" fill="1" layer="-1.00" shape="1630.200202,696.648477 1616.167854,690.270892 1681.742877,551.432536 1695.514700,557.811817 1630.200202,696.648477"/>
    <poly id="982721361" type="building" color="255,230,230" fill="1" layer="-1.00" shape="1589.175687,605.187076 1595.670906,604.648193 1596.674700,605.883790 1601.383045,599.402052 1627.718798,618.620608 1622.520159,625.615361 1612.486375,618.470351 1604.314387,629.452633 1600.565588,629.974617 1600.835298,632.955428 1592.097926,633.752019 1591.840593,631.270059 1588.091795,631.792048 1577.058767,624.154295 1569.133618,634.392244 1562.362723,629.466829 1582.170196,602.990553 1587.940442,607.190380 1589.175687,605.187076"/>
    <poly id="982821597" type="building" color="255,230,230" fill="1" layer="-1.00" shape="1575.945387,1051.408329 1589.776203,1067.477347 1581.829993,1074.234032 1567.989862,1058.165081 1575.945387,1051.408329"/>
    <poly id="982821622" type="building" color="255,230,230" fill="1" layer="-1.00" shape="1539.755699,933.075118 1550.593642,949.905358 1542.135497,955.179533 1531.297545,938.349301 1539.755699,933.075118"/>
    <poly id="982822949" type="building" color="255,230,230" fill="1" layer="-1.00" shape="1634.632716,1093.544765 1612.015464,1111.079751 1605.222001,1102.429131 1627.839194,1084.883042 1634.632716,1093.544765"/>
    <poly id="982822950" type="building" color="255,230,230" fill="1" layer="-1.00" shape="1633.399009,1014.023489 1645.462768,1027.364899 1605.736004,1063.398837 1593.662923,1050.057533 1633.399009,1014.023489"/>
    <poly id="982822951" type="building" color="255,230,230" fill="1" layer="-1.00" shape="1621.881237,968.359399 1628.851282,964.835143 1642.498041,991.848484 1635.528011,995.372730 1621.881237,968.359399"/>
    <poly id="982822952" type="building" color="255,230,230" fill="1" layer="-1.00" shape="1552.255552,894.724961 1560.828477,908.087760 1534.462393,924.659228 1525.889377,911.285364 1552.255552,894.724961"/>
    <poly id="982823259" type="building" color="255,230,230" fill="1" layer="-1.00" shape="1806.166803,1294.301760 1802.135086,1288.117619 1795.411811,1292.383088 1799.694879,1298.565686 1806.166803,1294.301760"/>
    <poly id="982823260" type="building" color="255,230,230" fill="1" layer="-1.00" shape="1761.055985,1308.492948 1777.970392,1297.701067 1779.484475,1300.186412 1783.962526,1297.176474 1781.941191,1293.951394 1808.303673,1276.892761 1822.421697,1298.925282 1796.057756,1315.739968 1791.518721,1308.805009 1788.531836,1310.564025 1796.859050,1323.440695 1780.186706,1334.231059 1772.374544,1321.850170 1768.888032,1324.111184 1765.365053,1318.910702 1767.109057,1317.902149 1761.055985,1308.492948"/>
    <poi id="1711534320" type="shop" color="237,199,255" layer="4.00" x="2378.84" y="994.94"/>
    <poi id="3307020921" type="amenity" color="237,199,199" layer="4.00" x="2393.76" y="1324.85"/>
    <poi id="3307027179" type="shop" color="237,199,255" layer="4.00" x="2324.12" y="1318.58"/>
    <poi id="4278996661" type="amenity" color="237,199,199" layer="4.00" x="2436.49" y="655.36"/>
    <poi id="4336500991" type="amenity" color="237,199,199" layer="4.00" x="2165.48" y="972.33"/>
    <poi id="4336500992" type="amenity" color="237,199,199" layer="4.00" x="2563.96" y="883.21"/>
    <poi id="4336501691" type="amenity" color="237,199,199" layer="4.00" x="2363.37" y="1086.40"/>
    <poi id="4336501890" type="amenity" color="237,199,199" layer="4.00" x="2646.45" y="899.67"/>
    <poi id="4336504289" type="amenity" color="237,199,199" layer="4.00" x="2356.35" y="1127.98"/>
    <poi id="4406704192" type="amenity" color="237,199,199" layer="4.00" x="2121.90" y="1243.68"/>
    <poi id="4574057289" type="amenity" color="237,199,199" layer="4.00" x="1906.15" y="1199.20"/>
    <poi id="4657745091" type="amenity" color="237,199,199" layer="4.00" x="2329.94" y="1284.19"/>
    <poi id="4749129924" type="amenity" color="237,199,199" layer="4.00" x="2353.15" y="1109.04"/>
    <poi id="4769336330" type="building" color="255,230,230" layer="4.00" x="1705.21" y="1327.09"/>
    <poi id="4774094955" type="amenity" color="237,199,199" layer="4.00" x="2467.10" y="895.52"/>
    <poi id="4829175423" type="amenity" color="237,199,199" layer="4.00" x="2407.82" y="1242.55"/>
    <poi id="4965398824" type="amenity" color="237,199,199" layer="4.00" x="2443.59" y="1033.17"/>
    <poi id="5002659824" type="shop" color="237,199,255" layer="4.00" x="2506.59" y="664.44"/>
    <poi id="5036654322" type="amenity" color="237,199,199" layer="4.00" x="2239.47" y="987.50"/>
    <poi id="5150276029" type="shop" color="237,199,255" layer="4.00" x="2458.74" y="944.49"/>
    <poi id="5179755321" type="amenity" color="237,199,199" layer="4.00" x="2292.32" y="1323.93"/>
    <poi id="5432013121" type="amenity" color="237,199,199" layer="4.00" x="2437.00" y="1071.74"/>
    <poi id="5437362624" type="amenity" color="237,199,199" layer="4.00" x="2413.40" y="1209.83"/>
    <poi id="5559861120" type="amenity" color="237,199,199" layer="4.00" x="2332.33" y="1211.75"/>
    <poi id="5776483755" type="shop" color="237,199,255" layer="4.00" x="2407.37" y="826.21"/>
    <poi id="5779751253" type="amenity" color="237,199,199" layer="4.00" x="2431.31" y="684.64"/>
    <poi id="5879344589" type="amenity" color="237,199,199" layer="4.00" x="2496.18" y="725.35"/>
    <poi id="5879375085" type="amenity" color="237,199,199" layer="4.00" x="2497.62" y="716.95"/>
    <poi id="5880898485" type="amenity" color="237,199,199" layer="4.00" x="2390.17" y="892.39"/>
    <poi id="6038672185" type="amenity" color="237,199,199" layer="4.00" x="2375.93" y="1012.17"/>
    <poi id="6105482186" type="amenity" color="237,199,199" layer="4.00" x="2292.78" y="1625.73"/>
    <poi id="6123882385" type="amenity" color="237,199,199" layer="4.00" x="2447.57" y="1009.82"/>
    <poi id="6144737887" type="amenity" color="237,199,199" layer="4.00" x="2374.65" y="1019.69"/>
    <poi id="6244327588" type="amenity" color="237,199,199" layer="4.00" x="2309.39" y="1257.44"/>
    <poi id="6312847285" type="amenity" color="237,199,199" layer="4.00" x="2373.50" y="1026.52"/>
    <poi id="6329969786" type="amenity" color="237,199,199" layer="4.00" x="2148.48" y="1311.64"/>
    <poi id="6434145186" type="amenity" color="237,199,199" layer="4.00" x="2418.72" y="1178.68"/>
    <poi id="6434175085" type="shop" color="237,199,255" layer="4.00" x="2424.56" y="1144.57"/>
    <poi id="6434280485" type="shop" color="237,199,255" layer="4.00" x="2514.75" y="616.71"/>
    <poi id="6434280685" type="shop" color="237,199,255" layer="4.00" x="2511.40" y="636.27"/>
    <poi id="6584694385" type="shop" color="237,199,255" layer="4.00" x="2314.99" y="682.65"/>
    <poi id="6718999227" type="amenity" color="237,199,199" layer="4.00" x="2446.95" y="592.10"/>
    <poi id="6726222590" type="amenity" color="237,199,199" layer="4.00" x="2323.16" y="1324.30"/>
    <poi id="6747001390" type="shop" color="237,199,255" layer="4.00" x="2491.48" y="752.90"/>
    <poi id="6836337686" type="amenity" color="237,199,199" layer="4.00" x="2434.30" y="1087.53"/>
    <poi id="6882595786" type="amenity" color="237,199,199" layer="4.00" x="2312.28" y="1262.53"/>
    <poi id="6900176286" type="amenity" color="237,199,199" layer="4.00" x="2366.71" y="1018.67"/>
    <poi id="6981791685" type="amenity" color="237,199,199" layer="4.00" x="2395.38" y="1315.32"/>
    <poi id="6982095486" type="amenity" color="237,199,199" layer="4.00" x="2338.22" y="1235.21"/>
    <poi id="7038959386" type="amenity" color="237,199,199" layer="4.00" x="2362.28" y="1092.88"/>
    <poi id="7095422386" type="amenity" color="237,199,199" layer="4.00" x="2429.37" y="1116.41"/>
    <poi id="7169881586" type="amenity" color="237,199,199" layer="4.00" x="2392.99" y="911.26"/>
    <poi id="7266655285" type="amenity" color="237,199,199" layer="4.00" x="2323.48" y="1322.38"/>
    <poi id="7632005485" type="tourism" color="207,245,201" layer="3.00" x="2778.51" y="1240.13"/>
    <poi id="7728499388" type="amenity" color="237,199,199" layer="4.00" x="2328.61" y="1292.06"/>
    <poi id="7821253417" type="amenity" color="237,199,199" layer="4.00" x="2344.64" y="1197.26"/>
    <poi id="7828721786" type="amenity" color="237,199,199" layer="4.00" x="2428.51" y="1121.40"/>
    <poi id="7895157985" type="amenity" color="237,199,199" layer="4.00" x="2412.50" y="1215.10"/>
    <poi id="7931861386" type="amenity" color="237,199,199" layer="4.00" x="2299.15" y="1311.24"/>
    <poi id="8006834985" type="amenity" color="237,199,199" layer="4.00" x="2200.57" y="1150.88"/>
    <poi id="8038282485" type="amenity" color="237,199,199" layer="4.00" x="2393.53" y="1226.28"/>
    <poi id="8074157317" type="amenity" color="237,199,199" layer="4.00" x="2283.07" y="1317.02"/>
    <poi id="8113605717" type="amenity" color="237,199,199" layer="4.00" x="2433.28" y="971.35"/>
    <poi id="8144060118" type="shop" color="237,199,255" layer="4.00" x="2350.43" y="1234.61"/>
    <poi id="8336771217" type="amenity" color="237,199,199" layer="4.00" x="2457.78" y="871.30"/>
    <poi id="8418031517" type="amenity" color="237,199,199" layer="4.00" x="2364.46" y="1026.72"/>
    <poi id="8438927717" type="amenity" color="237,199,199" layer="4.00" x="2139.76" y="1299.48"/>
    <poi id="8441636417" type="amenity" color="237,199,199" layer="4.00" x="2123.63" y="1223.38"/>
    <poi id="8445792318" type="man_made" color="255,230,230" layer="4.00" x="2658.48" y="712.49"/>
    <poi id="8445792417" type="amenity" color="237,199,199" layer="4.00" x="2624.35" y="737.82"/>
    <poi id="8445792617" type="man_made" color="255,230,230" layer="4.00" x="2663.40" y="712.45"/>
    <poi id="8516347919" type="shop" color="237,199,255" layer="4.00" x="1894.05" y="1301.47"/>
    <poi id="8516356818" type="shop" color="237,199,255" layer="4.00" x="2444.56" y="878.89"/>
    <poi id="8525864917" type="amenity" color="237,199,199" layer="4.00" x="2190.82" y="874.17"/>
    <poi id="8556081317" type="amenity" color="237,199,199" layer="4.00" x="2485.45" y="648.47"/>
    <poi id="8670184118" type="amenity" color="237,199,199" layer="4.00" x="2393.33" y="1036.02"/>
    <poi id="8715332617" type="amenity" color="237,199,199" layer="4.00" x="2501.42" y="650.13"/>
    <poi id="8805151727" type="amenity" color="237,199,199" layer="4.00" x="2467.40" y="860.16"/>
    <poi id="8805151728" type="amenity" color="237,199,199" layer="4.00" x="2468.68" y="851.98"/>
    <poi id="8805151728#1" type="shop" color="237,199,255" layer="4.00" x="2468.68" y="851.98"/>
    <poi id="8805151729" type="amenity" color="237,199,199" layer="4.00" x="2469.34" y="847.73"/>
    <poi id="8805151729#1" type="shop" color="237,199,255" layer="4.00" x="2469.34" y="847.73"/>
    <poi id="8980237522" type="amenity" color="237,199,199" layer="4.00" x="2187.49" y="1034.59"/>
    <poi id="9046330455" type="amenity" color="237,199,199" layer="4.00" x="2225.43" y="996.88"/>
    <poi id="9146376617" type="tourism" color="207,245,201" layer="3.00" x="2842.75" y="1143.03"/>
    <poi id="9167349217" type="amenity" color="237,199,199" layer="4.00" x="2297.95" y="1318.20"/>
    <poi id="9197802818" type="amenity" color="237,199,199" layer="4.00" x="2672.67" y="1291.17"/>
</additional>
