<?xml version="1.0"?>

<routes> <!-- The opening tag -->

   <!-- Vehicle types -->
   <vType id="passenger" length="5.0" width="2.0" maxSpeed="70.0" accel="2.6" decel="4.5" sigma="0.5"/>

   <!-- Routes + associated vehicles & flows -->
   <route id="trip-0" color="Magenta" edges="298848145#0 130285121#0 987879162#0 347003327#0 397327124#0 468433796 397327121#0 347003229#0 347003229#2 131448559#0 397364246#2 298832240 864614823#0 864614823#2 298832235#0 298832235#3 298832235#4 48018653"/>
   <vehicle id="vehicle-0" type="passenger" color="Yellow" depart="0.0" route="trip-0"/>

   <route id="trip-1" color="Magenta" edges="687108617#0 435106239#0 469154542 6057417#0 6056366#0 6056366#3 130889756#0 130889756#3 130889756#5 130889756#7 130889757#0 698748857#0 589539536#0 589539536#2 589539536#3 589539536#4 590581668#0 590581668#2 1049842802#0 1049842803 1049842804 589539534#0 1049287312#0 1049287312#2 126303354#0 126303354#2 345709542#0 1048676964#0 298848145#0 130285121#0 508158271 508158272#0 130889749#0 130889749#2 397316524#0 -397316522 -298814317#2 468433794 397319278#0 298814316 454817812 146537575#0 397319284#0"/>
   <vehicle id="vehicle-1" type="passenger" color="Yellow" depart="0.01" route="trip-1"/>

   <route id="trip-2" color="Magenta" edges="1047793071 298814315#0 508158270#0 468433793#0 354079210 468433792#0 347003228#0 347003229#0 347003229#2 589551073#0 1051018092#0 345633934 1051018093#0 589539535#0 589533502#0 469165486#0 469165487 469165488#0 -469165489#1 -469165490#1 -537114618#10 -537114618#8 -537114618#5 -537114618#4 -537114618#2 -537114618#1 -468434115#1 -923370378#11 -923370378#9"/>
   <vehicle id="vehicle-2" type="passenger" color="Yellow" depart="0.02" route="trip-2"/>

   <route id="trip-3" color="Magenta" edges="510723128#1 510723128#2 45838764#0 24238018#0 24238018#2 397319281#0 421734517#0 298814317#0 -347003330#3 397316186#0 397316195#0 397316204#0 347003327#0 397327124#0 468433796 397327121#0 203119342#0 468433795#0 723610179 -476103813#1 -352412083 -126303356#1 -298832261#2 -298832254#2 -476103809#1 354202945#0 352411913#0 -352412093#2 -421061860 126303364 323742932"/>
   <vehicle id="vehicle-3" type="passenger" color="Yellow" depart="0.03" route="trip-3"/>

   <route id="trip-4" color="Magenta" edges="130908283#2 130908283#3 589533502#0 468434122#0 468434122#2 695842776#0 695842776#1 520537746 583705854 535520845#0 535520845#1"/>
   <vehicle id="vehicle-4" type="passenger" color="Yellow" depart="0.04" route="trip-4"/>

   <route id="trip-5" color="Magenta" edges="126303362#0 298829677#0 468450576#0 397319283 397319278#0 298814316 454817812 146537575#0 397319276 297456132#0 397324964#0 397324962 297368443#0"/>
   <vehicle id="vehicle-5" type="passenger" color="Yellow" depart="0.05" route="trip-5"/>

   <route id="trip-6" color="Magenta" edges="-6062201#2 6062201#0 -130788155#2 -434444693#2 -509646034#1 -352412073 -47920785#1 -352412039#1 -298815729#1 -476103813#1 -352412083 -126303356#1 -298832261#2 -298832254#2 -476103809#1 354202945#0 50429913 436136929#2-AddedOnRampEdge"/>
   <vehicle id="vehicle-6" type="passenger" color="Yellow" depart="0.06" route="trip-6"/>

   <route id="trip-7" color="Magenta" edges="-589533563#2 589533563#0 589539518#0 589539518#2 297380210#0 297380210#2 589539537#0 397327934#0 397327932#0 397327939#0 397327938 397327933 397327935#0 397327936#0 397327937#0 333922766#0 -333922766#1"/>
   <vehicle id="vehicle-7" type="passenger" color="Yellow" depart="0.07" route="trip-7"/>

   <route id="trip-8" color="Magenta" edges="353283535#0 353283535#2 469159257#0 -983121554#11 -983121554#7 -983121554#6 983121554#6"/>
   <vehicle id="vehicle-8" type="passenger" color="Yellow" depart="0.08" route="trip-8"/>

   <route id="trip-9" color="Magenta" edges="321477125#6 520537743#0 520537743#1 354436361#0 354436361#1 354436361#2 583698434 583698432 520537744 520537746 583705854 535520845#0 535520845#1 535520845#2 352412093#0 -352411913#1 -354202945#1 476103809#0 298832254#0 298832261#0 298832240 864614823#0 864614823#2 468469923#0 468469931#0 468469935#0 468469935#2 468469943#0 -479469615#3 -520463951#3 -520463951#1 520463951#0"/>
   <vehicle id="vehicle-9" type="passenger" color="Yellow" depart="0.09" route="trip-9"/>

   <route id="trip-10" color="Magenta" edges="-423607087 589551072#0 6063274#0 1049303874#0 130889755#0 130889756#0 130889756#3 130889756#5 130889756#7 130889757#0 698748856#0 468436770 130285136#0 -468436769#1 -985426724 -985426725#1 -543909823#1 345633935#0 50799230#0 50799230#2 -50799230#2"/>
   <vehicle id="vehicle-10" type="passenger" color="Yellow" depart="0.1" route="trip-10"/>

   <route id="trip-11" color="Magenta" edges="468469931#0 468469935#0 468469935#2 468469943#0 468469939#0 468469946#0 200019461#0 435424520#0 -420781368#1 -920893151#1 -6057581#6 -6057581#5 -6057581#4 -6057581#3 -6057581#2 -6057581#1 -6056532#2 50710195#0 50710195#2 297296770#0"/>
   <vehicle id="vehicle-11" type="passenger" color="Yellow" depart="0.11" route="trip-11"/>

   <route id="trip-12" color="Magenta" edges="45839048#0 50511237#0 -47916246#3 -47916246#1 -589551087#2 -202992519#2 -468441158#1 -468441885#1 -468441884 -120478695#4 -120478695#3 -120478695#2 397329575#0 397329570 397329572#0 297380214#0 -297380214#2"/>
   <vehicle id="vehicle-12" type="passenger" color="Yellow" depart="0.12" route="trip-12"/>

   <route id="trip-13" color="Magenta" edges="50524889#15 50524889#17 576620616 466349886#0 321477125#3 321477125#4 321477125#5 321477125#6 520537743#0 520537743#1 354436361#0 354436361#1 354436361#2 583698434 583698432 50429918 -354202762 466349883 583705855 469165475 130802360#0 130802360#1 469159255 353283535#0 353283535#2"/>
   <vehicle id="vehicle-13" type="passenger" color="Yellow" depart="0.13" route="trip-13"/>

   <route id="trip-14" color="Magenta" edges="47920785#0 352412073 509646034#0 516085385 509646035#0 509646035#2 130788204#0 130788207#0 130788207#2"/>
   <vehicle id="vehicle-14" type="passenger" color="Yellow" depart="0.14" route="trip-14"/>

   <route id="trip-15" color="Magenta" edges="434444693#0 130788155#0 131520206#0 650605162 6062204 988196201#0 6057595#0 -202992519#2 -468441158#1 -468441885#1 -468441884 -120478695#4 -120478695#3 -120478695#2 -589905511#3 397327936#0 397327937#0 131052512#0"/>
   <vehicle id="vehicle-15" type="passenger" color="Yellow" depart="0.15" route="trip-15"/>

   <route id="trip-16" color="Magenta" edges="-305660797#2 305660797#2 305660797#3 469165490#0 469165490#2 590581668#0 590581668#2 1049842802#0 1049842803 1049842804 589539534#0 1049287312#0 1049287312#2 126303354#0 126303354#2 345709542#0 1048676964#0 298848145#0 1047793071 298814315#0 508158270#0 421268132#0 439875857#0 590598870#0 509326776#0 650605162 6062204 988196201#0 6057595#0 202992520#2"/>
   <vehicle id="vehicle-16" type="passenger" color="Yellow" depart="0.16" route="trip-16"/>

   <route id="trip-17" color="Magenta" edges="1060936417 -468433800 -468433803 -468433804 -298832254#2 -476103809#1 -520532363 -6060903#4 -6060903#2 -6060903#1 589539535#0 589533502#0 468434122#0 468434122#2 695842776#0 695842776#1 520537745"/>
   <vehicle id="vehicle-17" type="passenger" color="Yellow" depart="0.17" route="trip-17"/>

   <route id="trip-18" color="Magenta" edges="70948801#3 439875857#0 590598870#0 509326776#0 650605162 6062204 988196201#0 29961175#0 155011691#0 421037430#0 -47916247#4 47916247#3"/>
   <vehicle id="vehicle-18" type="passenger" color="Yellow" depart="0.18" route="trip-18"/>

   <route id="trip-19" color="Magenta" edges="436136929#2-AddedOnRampEdge 436136929#2 438964977 130908283#0 130908283#1 130908283#2 130908283#3 6058793#0 1049842802#0 1049842803 1049842804 589539534#0 1049287312#0 1049287312#2 126303354#0 126303354#2 175873836#0"/>
   <vehicle id="vehicle-19" type="passenger" color="Yellow" depart="0.19" route="trip-19"/>

   <route id="trip-20" color="Magenta" edges="6054895#0 6054895#2 6054895#3 50524889#7 50524889#10 50524889#15 50524889#17 576620616 466349886#0 466349886#2"/>
   <vehicle id="vehicle-20" type="passenger" color="Yellow" depart="0.2" route="trip-20"/>

   <route id="trip-21" color="Magenta" edges="-352412073 352412073 509646034#0 434444693#0 130788155#0 131520206#0 650605162 6062204 988196201#0 6057595#0 202992520#2 202992520#3 202992520#5 202992520#7"/>
   <vehicle id="vehicle-21" type="passenger" color="Yellow" depart="0.21" route="trip-21"/>

   <route id="trip-22" color="Magenta" edges="352411913#0 -352411913#1 -354202945#1 476103809#0 298832254#0 298832261#0 126303356#0 476103811 476103812 49999718#1 -468433795#1 -203119342#1 -397327121#1 -468433796 -397327124#1 298848145#0 130285121#0 508158271 508158272#0 130889749#0 130889749#2 397316524#0 -397316522 347003330#4 589533563#0 589539518#0 589539518#2 297380210#0 297380210#2 589539537#0 397327934#0"/>
   <vehicle id="vehicle-22" type="passenger" color="Yellow" depart="0.22" route="trip-22"/>

   <route id="trip-23" color="Magenta" edges="-537114618#5 537114618#5 537114618#6 543712321#0 1033847612#0 1033847614#0 1033847614#3 1033847615#0"/>
   <vehicle id="vehicle-23" type="passenger" color="Yellow" depart="0.23" route="trip-23"/>

   <route id="trip-24" color="Magenta" edges="297380210#0 -297380210#1 -589539518#3 -589539518#1 -589533563#2 -347003330#6 -347003330#3 397316186#0 397316195#0 397316204#0 347003327#0 397327124#0 468433796 397327121#0 203119342#0 468433795#0 723610179 -476103813#1 -352412083 -126303356#1 -298832261#2 -298832254#2 -476103809#1 354202945#0 352411913#0 -352411913#1"/>
   <vehicle id="vehicle-24" type="passenger" color="Yellow" depart="0.24" route="trip-24"/>

   <route id="trip-25" color="Magenta" edges="-47916247#2 47916247#2 47916247#3 -421037430#2 6056532#0 45838762#1 971624710 6062876#0 509325421 468450542 130285122#0 126303355#0 347003228#0 347003229#0 347003229#2 589551073#0 1051018092#0 345633934 1051018093#0 589539535#0 589533502#0 468434122#0"/>
   <vehicle id="vehicle-25" type="passenger" color="Yellow" depart="0.25" route="trip-25"/>

   <route id="trip-26" color="Magenta" edges="6055551#0 -6055551#1 120478418#0 423615732#0 998360408#0 998360408#1 397315033#0 298829677#0 468450576#0 397319283 421734517#0 -6056371#1 -397318415#1 397318415#0 397318413"/>
   <vehicle id="vehicle-26" type="passenger" color="Yellow" depart="0.26" route="trip-26"/>

   <route id="trip-27" color="Magenta" edges="543712269#0 543712269#2 537114618#5 537114618#6 537114618#9 469165490#0 469165490#2 590581668#0 590581668#2 1049842802#0 1049842803 1049842804 589539534#0 1049287312#0 1049287312#2 126303354#0 126303354#2 345709542#0 1048676964#0 298848145#0 130285121#0 508158271 508158272#0 130889749#0 130889749#2 397316524#0 -397316522 347003330#4 589533563#0 589539518#0 589539518#2 297380210#0"/>
   <vehicle id="vehicle-27" type="passenger" color="Yellow" depart="0.27" route="trip-27"/>

   <route id="trip-28" color="Magenta" edges="-305660797#2 305660797#2 305660797#3 469154540#0 26707840#0 698748857#0 589533584#0 695842776#0 695842776#1 520537745 354202762 50429926"/>
   <vehicle id="vehicle-28" type="passenger" color="Yellow" depart="0.28" route="trip-28"/>

   <route id="trip-29" color="Magenta" edges="468436769#0 6056069#0 589533583#0 589539536#0 589539536#2 589539536#3 589539536#4 590581668#0 590581668#2 1049842802#0 1049842803 1049842804 589539534#0 -469165492#2 -469165492#1 6060903#0 6060903#2 6060903#3 520532363 476103809#0 298832254#0 298832261#0 126303356#0 476103811 476103813#0 421077027 126303361#0 -126303361#1"/>
   <vehicle id="vehicle-29" type="passenger" color="Yellow" depart="0.29" route="trip-29"/>

</routes> <!-- The closing tag -->
