<?xml version="1.0"?>

<routes> <!-- The opening tag -->

   <!-- Vehicle types -->
   <vType id="passenger" length="5.0" width="2.0" maxSpeed="70.0" accel="2.6" decel="4.5" sigma="0.5"/>

   <!-- Routes + associated vehicles & flows -->
   <route id="trip-0" color="Magenta" edges="-1008299672 -423607087 589551072#0 -397360056#2 -50431293#1 509326252#0 50431292#0 6057417#0 130908289#0 130908289#3 130908289#5 130908289#6 130908289#7 50797098#3"/>
   <vehicle id="vehicle-0" type="passenger" color="Yellow" depart="0.0" route="trip-0"/>

   <route id="trip-1" color="Magenta" edges="-6054255#5 6054255#3 6054255#6 6054255#7 -297294784#2 494175930#0 297368443#0 146537579#0 130285135#0 397319284#0 397319281#0 421734517#0 298814317#0 397316523#0 -397316524#1 -130889749#2 -130889749#1 130927087#0 468433793#0 354079210 468433792#0 -756406654#1 -347003227 -468433791#1 468433791#0"/>
   <vehicle id="vehicle-1" type="passenger" color="Yellow" depart="0.01" route="trip-1"/>

   <route id="trip-2" color="Magenta" edges="589539536#2 589539536#3 589539536#4 -469165489#1 -469165490#1 -537114618#10 -537114618#8 -537114618#5 -537114618#4 -537114618#2 6062881#0 985067151 130285133#0-AddedOnRampEdge 130285133#0 6056363#0 6056363#2 6056363#3 203119341#0 696806636#0 696806637#0"/>
   <vehicle id="vehicle-2" type="passenger" color="Yellow" depart="0.02" route="trip-2"/>

   <route id="trip-3" color="Magenta" edges="-6063421#0 6063421#0 6063421#1 6063421#2 6063421#3 6063421#4 292148140#3 50511237#0 297296770#0 6056532#0 45838762#1 6062201#0 -130788155#2 -434444693#2 -509646034#1 -352412073 -47920785#1 -352412039#1 -298815729#1 -476103813#1 -352412083 -126303356#1 -298832261#2 -298832254#2 -476103809#1 -520532363 520532363 -121980352 121980352"/>
   <vehicle id="vehicle-3" type="passenger" color="Yellow" depart="0.03" route="trip-3"/>

   <route id="trip-4" color="Magenta" edges="6052882#0 435424522#0 -435424522#1 -308739814#1 -435424521#1 -420781368#1 -920893151#1 -6057581#6 -6057581#5 -6057581#4 -6057581#3 -6057581#2 -6057581#1 954271698#0 988196201#0 6057595#0 -202992519#2 -468441158#1 -468441885#1 -468441884 -120478695#4 -120478695#3 -120478695#2 -589905511#3 -297294792#2 -297294791#2 131052386#3"/>
   <vehicle id="vehicle-4" type="passenger" color="Yellow" depart="0.04" route="trip-4"/>

   <route id="trip-5" color="Magenta" edges="436136927#5 436136927#6 436136927#7 121980352 -520532363 -6060903#4 -6060903#2 -6060903#1 589539535#0 589533502#0 469165486#0 469165487 469165488#0 -469165489#1 -469165490#1 -537114618#10 -537114618#8 -537114618#5 -537114618#4 -537114618#2 -537114618#1 -468434115#1 -923370378#11 -923370378#9 -923370378#7 -923370378#6 -923370378#4 -923370378#2 -923370378#0 -6055551#1 -468434116#1 6062397#0 -397360056#2"/>
   <vehicle id="vehicle-5" type="passenger" color="Yellow" depart="0.05" route="trip-5"/>

   <route id="trip-6" color="Magenta" edges="49999716#0 49999716#2 50429908 -352412073 -47920785#1 -352412039#1 -298815729#1 -723610179 -468433795#1 -203119342#1 347003229#0 347003229#2 589551073#0 1051018092#0 345633934 1051018093#0 589539535#0 589533502#0 468434122#0 468434122#2 695842775 469157093 469157092 1048252755#0 589533511 520537739 352412106 521221938"/>
   <vehicle id="vehicle-6" type="passenger" color="Yellow" depart="0.06" route="trip-6"/>

   <route id="trip-7" color="Magenta" edges="468469943#0 468469939#0 468469946#0 200019461#0 435424520#0 -420781368#1 -920893151#1 -6057581#6 -6057581#5 -6057581#4 -6057581#3 -6057581#2 -6057581#1 954271698#0 988196201#0 -589551086#2 -130802376#2 -397321701#2"/>
   <vehicle id="vehicle-7" type="passenger" color="Yellow" depart="0.07" route="trip-7"/>

   <route id="trip-8" color="Magenta" edges="494988146#0 494988146#2 -50422161 998338690#6 47916249#0 45838762#1 971624710 6062876#0 509325421 468450542 130285122#0 126303355#0 347003228#0 347003229#0 347003229#2 589551073#0 1051018092#0 345633934 1051018093#0 589539535#0 589533502#0 469165486#0 469165487 469165488#0 -469165489#1 -469165490#1 -537114618#10 -537114618#8 -537114618#5 -537114618#4 -537114618#2 6062881#0 985067151 130285133#0-AddedOnRampEdge 130285133#0 6056363#0 6056363#2 6056363#3 203119341#0 696806636#0 696806637#0 435106239#0 469154542"/>
   <vehicle id="vehicle-8" type="passenger" color="Yellow" depart="0.08" route="trip-8"/>

   <route id="trip-9" color="Magenta" edges="468469900#1 468469900#4 468469897#0 468469894#0 468469887 296355738#0 296355738#1 47916246#0 47916246#2 297296770#0"/>
   <vehicle id="vehicle-9" type="passenger" color="Yellow" depart="0.09" route="trip-9"/>

   <route id="trip-10" color="Magenta" edges="397303092#0 -397303092#2 -397303090#1 -175873836#2 130802372#0 130802372#3 131448559#0 397364246#2 298832240 864614823#0"/>
   <vehicle id="vehicle-10" type="passenger" color="Yellow" depart="0.1" route="trip-10"/>

   <route id="trip-11" color="Magenta" edges="-126303361#1 -421077027 298815729#0 352412039#0 47920785#0 352412073 509646034#0 434444693#0 130788155#0 131520206#0 509325421 50799689#0"/>
   <vehicle id="vehicle-11" type="passenger" color="Yellow" depart="0.11" route="trip-11"/>

   <route id="trip-12" color="Magenta" edges="296365924#2 6055387#0 6055387#2 -297294791#2 -513235538#2 -6054255#8 6054255#7"/>
   <vehicle id="vehicle-12" type="passenger" color="Yellow" depart="0.12" route="trip-12"/>

   <route id="trip-13" color="Magenta" edges="-333922526#3 -333922526#1 -50260020#7 -50260020#5 -50260020#3 -50260020#1 130927087#0 468433793#0 354079210 468433792#0 347003228#0 347003229#0 347003229#2 589551073#0 1051018092#0 345633934 1051018093#0 589539535#0 589533502#0 469165486#0 469165487 469165488#0 -469165489#1 -469165490#1 -537114618#10 -537114618#8 -537114618#5 -537114618#4 -537114618#2 -537114618#1 -468434115#1 -923370378#11 -923370378#9 -923370378#7 -923370378#6 -923370378#4 923370378#3"/>
   <vehicle id="vehicle-13" type="passenger" color="Yellow" depart="0.13" route="trip-13"/>

   <route id="trip-14" color="Magenta" edges="130908289#7 50797098#3 50797098#6 50797098#8 130889756#7 130889757#0 698748857#0 589539536#0 589539536#2 589539536#3 589539536#4 590581668#0 590581668#2 1049842802#0 1049842803 1049842804 589539534#0 1049287312#0 1049287312#2 126303354#0 126303354#2 345709542#0 1048676964#0 298848145#0 1047793071 298814315#0 508158270#0 421268132#0 439875857#0 590598870#0 509326776#0 650605162 6062204 988196201#0 6057595#0 202992520#2 202992520#3 -590581593#5 -590581593#3 -590581593#1"/>
   <vehicle id="vehicle-14" type="passenger" color="Yellow" depart="0.14" route="trip-14"/>

   <route id="trip-15" color="Magenta" edges="125568108#2 -125568108#2 -125568108#1 -130788190 -130788195 -130788192#2 -321444899#2 130285122#0 126303355#0 347003228#0 347003229#0 347003229#2 589551073#0 1051018092#0 345633934 1051018093#0 589539535#0 589533502#0 468434122#0 468434122#2 695842776#0 695842776#1 520537745 354202762"/>
   <vehicle id="vehicle-15" type="passenger" color="Yellow" depart="0.15" route="trip-15"/>

   <route id="trip-16" color="Magenta" edges="-575569267#6 575569267#5 575569267#7 575569267#9 -125568108#4 -125568108#2 -125568108#1 -130788190 -130788195 435424520#0 -420781368#1 -920893151#1 -6057581#6 -6057581#5 -6057581#4 -6057581#3 -6057581#2 -6057581#1 954271698#0 988196201#0 6057595#0 -202992519#2 -468441158#1 -468441885#1 -468441884 -120478695#4 -120478695#3 -514191883#2 -514191882#1 -296365351#6 -296365351#5 -296365351#4 -296365351#2"/>
   <vehicle id="vehicle-16" type="passenger" color="Yellow" depart="0.16" route="trip-16"/>

   <route id="trip-17" color="Magenta" edges="988487222 988487223 130772929#0 468469915#0 48018646#0 48018646#2 1052604510#0 -435424522#5 -435424522#3 -435424522#1 -308739814#1 -435424521#1 -420781368#1 -920893151#1 -6057581#6 -6057581#5 -6057581#4 -6057581#3 -6057581#2 -6057581#1 45838762#1 971624710 29961183#0 29961183#2 29961183#4 397321704#0 397321703#0 -397329578#2 -397329580#1 6061387#0"/>
   <vehicle id="vehicle-17" type="passenger" color="Yellow" depart="0.17" route="trip-17"/>

   <route id="trip-18" color="Magenta" edges="352411913#0 -352411913#1 -354202945#1 -121980352 121980352 -520532363 -6060903#4 -6060903#2 -6060903#1 469165492#0 469165492#2 1049287312#0 1049287312#2 126303354#0 126303354#2 175873836#0 397303090#0 397303092#0 130802371#0 126303362#0 -305368640#1 -998360408#3 998360408#1 -47916243#1 -120478419#1"/>
   <vehicle id="vehicle-18" type="passenger" color="Yellow" depart="0.18" route="trip-18"/>

   <route id="trip-19" color="Magenta" edges="589533582 583698433#0 6056069#0 589533583#0 589539536#0 589539536#2 589539536#3 589539536#4 590581668#0 590581668#2 1049842802#0 1049842803 1049842804 589539534#0 1049287312#0 1049287312#2 126303354#0 126303354#2 345709542#0 1048676964#0 298848145#0 1047793071 298814315#0 508158270#0 421268132#0 439875857#0 590598870#0 509326776#0 650605162 6062204 988196201#0 6057595#0 -202992519#2 -468441158#1"/>
   <vehicle id="vehicle-19" type="passenger" color="Yellow" depart="0.19" route="trip-19"/>

   <route id="trip-20" color="Magenta" edges="1051018092#0 345633934 1051018093#0 589539535#0 589533502#0 468434122#0 468434122#2 695842775 469157093 469157092 468434120#0 345633936#0 466349886#0 466349886#2 466349886#3 130788167#0 -130788167#0"/>
   <vehicle id="vehicle-20" type="passenger" color="Yellow" depart="0.2" route="trip-20"/>

   <route id="trip-21" color="Magenta" edges="-6055551#1 6055551#0 923370378#0 923370378#1 923370378#3 923370378#5 923370378#7 923370378#8 923370378#10 468434115#0 537114618#0 537114618#2 537114618#3 537114618#5 537114618#6 537114618#9 469165490#0 469165490#2 590581668#0 590581668#2 1049842802#0 1049842803 1049842804 589539534#0 1049287312#0 1049287312#2 126303354#0 126303354#2 345709542#0 1048676964#0 298848145#0 1047793071 298814315#0 508158270#0 421268132#0 439875858#1 439875858#4 439875858#6 439875858#8 516085385"/>
   <vehicle id="vehicle-21" type="passenger" color="Yellow" depart="0.21" route="trip-21"/>

   <route id="trip-22" color="Magenta" edges="397324962 297368443#0 146537579#0 130285135#0 397319284#0 542269372#0 589533564#0 589539521#0 70948801#0 70948801#2 -50260020#3 -50260020#1"/>
   <vehicle id="vehicle-22" type="passenger" color="Yellow" depart="0.22" route="trip-22"/>

   <route id="trip-23" color="Magenta" edges="589539518#0 -589539518#1 -589533563#2 -347003330#6 -347003330#3 397316186#0 397316195#0 397316204#0 347003327#0 397327124#0 468433796 397327121#0 203119342#0 468433795#0 723610179 -476103813#1 -352412083 -126303356#1 -298832261#2 -130908282"/>
   <vehicle id="vehicle-23" type="passenger" color="Yellow" depart="0.23" route="trip-23"/>

   <route id="trip-24" color="Magenta" edges="130802360#0 130802360#1 469159255 353283534#0 353283534#1 323742931 126303364 323742932 -126303366#1 468434122#0 468434122#2 695842775 469157093 469157092 468434120#0 543909823#0 985426725#0 985426724"/>
   <vehicle id="vehicle-24" type="passenger" color="Yellow" depart="0.24" route="trip-24"/>

   <route id="trip-25" color="Magenta" edges="257319363#0 296365924#0 296365924#2 6055387#0 6055387#2 -297294791#2 -513235538#2 -6054255#8 -6054255#6 -6054255#5"/>
   <vehicle id="vehicle-25" type="passenger" color="Yellow" depart="0.25" route="trip-25"/>

   <route id="trip-26" color="Magenta" edges="-438958617#11 438958617#9 961869114#0 496467785#0 985426724 468436769#0 6056069#0 589533583#0 589533584#0 695842776#0 695842776#1"/>
   <vehicle id="vehicle-26" type="passenger" color="Yellow" depart="0.26" route="trip-26"/>

   <route id="trip-27" color="Magenta" edges="50524889#7 50524889#10 -50799230#8 -50799230#6 -50799230#5 -50799230#2 -50799230#1 6057204#0 985426725#0 985426724 468436769#0 6056069#0 589533583#0 589539536#0 589539536#2 589539536#3 589539536#4 590581668#0 590581668#2 1049842802#0 1049842803 1049842804 589539534#0 1049287312#0 1049287312#2 126303354#0 126303354#2 345709542#0 1048676964#0 298848145#0 130285121#0 508158271 508158272#0 50260020#0 50260020#2 50260020#4 50260020#6 -297382770#5 -297382770#2 297382769#0 297382769#4 130802359#0 130802359#2 470165122 -468441884 -120478695#4 -120478695#3 -120478695#2"/>
   <vehicle id="vehicle-27" type="passenger" color="Yellow" depart="0.27" route="trip-27"/>

   <route id="trip-28" color="Magenta" edges="961869114#0 496467785#0 985426724 468436769#0 6056069#0 589533583#0 589539536#0 589539536#2 589539536#3 589539536#4 590581668#0 590581668#2 1049842802#0 1049842803 1049842804 589539534#0 1049287312#0 1049287312#2 126303354#0 126303354#2 345709542#0 1048676964#0 298848145#0 1047793071 298814315#0 508158270#0 421268132#0 439875857#0 590598870#0 321444898 321444899#0 130788155#0 -6062201#2 971624710"/>
   <vehicle id="vehicle-28" type="passenger" color="Yellow" depart="0.28" route="trip-28"/>

   <route id="trip-29" color="Magenta" edges="352411913#0 -352411913#1 -354202945#1 354202945#0 50429913"/>
   <vehicle id="vehicle-29" type="passenger" color="Yellow" depart="0.29" route="trip-29"/>

   <route id="trip-30" color="Magenta" edges="131076097#0 131076097#1 589539537#0 397327934#0 397327932#0 397327939#0 397327938 397327933 397327935#0 -297294792#2 -297294791#2 -513235538#2 -6054255#8 6054255#7"/>
   <vehicle id="vehicle-30" type="passenger" color="Yellow" depart="0.3" route="trip-30"/>

   <route id="trip-31" color="Magenta" edges="126303354#0 126303354#2 345709542#0 1048676964#0 298848145#0 130285121#0 508158271 508158272#0 130889749#0 130889749#2 397316524#0 -397316522 347003330#4 589533563#0 589539518#0 589539518#2 297380210#0 297380210#2 589539537#0 -397318412#1"/>
   <vehicle id="vehicle-31" type="passenger" color="Yellow" depart="0.31" route="trip-31"/>

   <route id="trip-32" color="Magenta" edges="520537747 421061860 352412093#0 -352411913#1 -354202945#1 476103809#0 298832254#0 298832261#0 298832240 864614823#0 864614823#2 468469923#0 468469931#0 468469935#0 468469935#2 468469943#0 -479469615#3 -520463951#3 -520463951#1 -575569267#2"/>
   <vehicle id="vehicle-32" type="passenger" color="Yellow" depart="0.32" route="trip-32"/>

   <route id="trip-33" color="Magenta" edges="-131052512#1 -397327937#1 -397327936#1 -397327935#1 -397327933 -397327938 -397327939#1 -397327932#1 -397327934#2 -397318412#1 -397318414#1 -397318410#1 -397318411#1 397318416#0 397318415#0 397318413 468433794 436271294#0 409541717 50799606#0 397319279#0 397319282#0 397319286#0 -305368640#1 -998360408#3 -998360408#0 -397304550 -120478418#2"/>
   <vehicle id="vehicle-33" type="passenger" color="Yellow" depart="0.33" route="trip-33"/>

   <route id="trip-34" color="Magenta" edges="-397329578#2 -397329580#1 397329580#0 397329578#0 131076063#0 589539520#0 -333922526#3 -333922526#1 -50260020#7 -50260020#5 -50260020#3 -50260020#1 130927087#0 468433793#0 354079210 468433792#0 347003228#0 347003229#0 347003229#2 589551073#0 1051018092#0 345633934 1051018093#0 589539535#0 589533502#0 469165486#0 469165487 469165488#0 -469165489#1 -469165490#1 -537114618#10 -537114618#8 -537114618#5 -537114618#4 -537114618#2 6062881#0 985067151 130285133#0-AddedOnRampEdge 130285133#0 6056363#0 6056363#2 6056363#3 130889760#0 131463018#0 509326252#0 50431292#0 6057417#0 130908289#0"/>
   <vehicle id="vehicle-34" type="passenger" color="Yellow" depart="0.34" route="trip-34"/>

   <route id="trip-35" color="Magenta" edges="-589551092#1 -589551092#0 146537587#0 397324962 297368443#0 146537579#0 130285135#0 397319284#0 397319281#0 436271294#0 409541717 535780677#0 535780677#2"/>
   <vehicle id="vehicle-35" type="passenger" color="Yellow" depart="0.35" route="trip-35"/>

   <route id="trip-36" color="Magenta" edges="130802360#0 130802360#1 469159255 353283535#0 353283535#2 469159257#0 469159256#0 469159256#3 469159259 469159258#0 469159258#1 469159258#2 468469919#0 468469927#0 468469927#2 460536376#0 468469923#0 468469931#0 468469935#0 468469935#2 468469943#0 468469939#0 468469946#0 200019461#0 435424520#0 -420781368#1 -920893151#1 -6057581#6 -6057581#5 -6057581#4 -6057581#3 -6057581#2 -6057581#1 -6056532#2 -155011691#1 -29961175#1"/>
   <vehicle id="vehicle-36" type="passenger" color="Yellow" depart="0.36" route="trip-36"/>

   <route id="trip-37" color="Magenta" edges="345633934 1051018093#0 589539535#0 589533502#0 468434122#0 468434122#2 695842775 469157093 469157092 468434120#0 345633935#0 50799230#0 50799230#2 -50799230#2"/>
   <vehicle id="vehicle-37" type="passenger" color="Yellow" depart="0.37" route="trip-37"/>

   <route id="trip-38" color="Magenta" edges="-333922766#1 -397327937#1 -397327936#1 589905511#0 397329575#0 397329570 397329572#0 297380214#0 297380214#3 -297380210#3 -297380210#1 -589539518#3 -589539518#1 -589533563#2 -347003330#6 -347003330#3 347003328#0 -397303092#2 397303092#0"/>
   <vehicle id="vehicle-38" type="passenger" color="Yellow" depart="0.38" route="trip-38"/>

   <route id="trip-39" color="Magenta" edges="6054255#2 6054255#3 6054255#6 6054255#7 -297294784#2 494175930#0 297368443#0 146537579#0 130285135#0 397319284#0 397319281#0 421734517#0 298814317#0 -347003330#3 347003328#0 -397303092#2 -397303090#1 -175873836#2 130802372#0 130802372#3 589551073#0 1051018092#0 345633934 1051018093#0 589539535#0 589533502#0 468434122#0 468434122#2 695842775 469157093 469157092 1048252755#0 589533511 520537739 -421076402 -509325914"/>
   <vehicle id="vehicle-39" type="passenger" color="Yellow" depart="0.39" route="trip-39"/>

   <route id="trip-40" color="Magenta" edges="397321704#0 397321703#0 131076063#0 589539520#0 -333922526#3 -333922526#1 333922462#0 648026207#0 321444900 321444898 321444899#0 130788192#0 130788195 130788190 125568108#0 125568108#2 125568108#3 -575569267#10 -575569267#8"/>
   <vehicle id="vehicle-40" type="passenger" color="Yellow" depart="0.4" route="trip-40"/>

   <route id="trip-41" color="Magenta" edges="468433796 397327121#0 347003229#0 347003229#2 589551073#0 1051018092#0 345633934 1051018093#0 589539535#0 6058793#0 -6058793#2"/>
   <vehicle id="vehicle-41" type="passenger" color="Yellow" depart="0.41" route="trip-41"/>

   <route id="trip-42" color="Magenta" edges="520537749 353283535#0 353283535#2 469159257#0 469159256#0 469159256#3 469159259 469159258#0 469159258#1 469159258#2 468469919#0 468469927#0 468469927#2 460536376#0 468469923#0 468469931#0 468469935#0 468469935#2 468469943#0 -479469615#3 48018661#0"/>
   <vehicle id="vehicle-42" type="passenger" color="Yellow" depart="0.42" route="trip-42"/>

   <route id="trip-43" color="Magenta" edges="296367654#0 6059107#3 6059107#4 131052512#0 131052512#2 131052512#3 131052512#4 297380211#0 297380211#4"/>
   <vehicle id="vehicle-43" type="passenger" color="Yellow" depart="0.43" route="trip-43"/>

   <route id="trip-44" color="Magenta" edges="397319276 130285135#0 -333922782#1 397318411#0 397318410#0"/>
   <vehicle id="vehicle-44" type="passenger" color="Yellow" depart="0.44" route="trip-44"/>

   <route id="trip-45" color="Magenta" edges="126303356#0 476103811 476103812 49999718#1 -468433795#1 -203119342#1 -397327121#1 -468433796 -397327124#1 298848145#0 130285121#0 508158271 508158272#0 130889749#0 130889749#2 397316524#0 -397316522 347003330#4 589533563#0 589539518#0 589539518#2 297380210#0 297380210#2 -297380214#6 -26572919#5"/>
   <vehicle id="vehicle-45" type="passenger" color="Yellow" depart="0.45" route="trip-45"/>

   <route id="trip-46" color="Magenta" edges="589539535#0 -130908283#4 -130908283#2 -130908283#1 -130908283#0 -352411913#1 -354202945#1 476103809#0 298832254#0 298832261#0 126303356#0 476103811 476103813#0 298815729#0 352412039#0 47920785#0 352412073 509646034#0 434444693#0 130788192#0 130788195 130788190 125568108#0 125568108#2 125568108#3 575569267#11 575569267#13 297401522#0"/>
   <vehicle id="vehicle-46" type="passenger" color="Yellow" depart="0.46" route="trip-46"/>

   <route id="trip-47" color="Magenta" edges="-6059056#1 -423602319#1 -423602679 6053702#0 6053702#2 6053702#3 509326344#0 6054254#0 50431292#0 6057417#0 6056366#0 6056366#3 130889756#0 130889756#3 130889756#5 130889756#7 130889757#0 698748857#0 589539536#0 589539536#2 589539536#3 589539536#4 590581668#0 590581668#2 1049842802#0 1049842803 1049842804 589539534#0 1049287312#0 1049287312#2 126303354#0 126303354#2 345709542#0 1048676964#0 298848145#0 1047793071 298814315#0 508158270#0 421268132#0 439875857#0 590598870#0 509326776#0 650605162 6062204 988196201#0 6057595#0 202992520#2 202992520#3 520468342 520468343#0 -520468343#1"/>
   <vehicle id="vehicle-47" type="passenger" color="Yellow" depart="0.47" route="trip-47"/>

   <route id="trip-48" color="Magenta" edges="323742931 126303364 323742932 -126303366#1 469165486#0 469165487 469165488#0 590581668#0 590581668#2 1049842802#0 1049842803 1049842804 589539534#0 1049287312#0 1049287312#2 126303354#0 126303354#2 345709542#0 1048676964#0 298848145#0 130285121#0 508158271 508158272#0 130889749#0 130889749#2 397316524#0 -397316522 347003330#4 589533563#0 589539518#0 589539518#2 297380210#0 297380210#2 589539537#0 397327934#0 397327932#0 397327939#0 397327938 397327933 397327935#0 397327936#0 397327937#0 333922766#0 333922766#2 -333922766#3"/>
   <vehicle id="vehicle-48" type="passenger" color="Yellow" depart="0.48" route="trip-48"/>

   <route id="trip-49" color="Magenta" edges="397319284#0 542269372#0 589533564#0 589539521#0 70948801#0 70948801#2 70948801#3 439875857#0 590598870#0 509326776#0 509325421 468450542"/>
   <vehicle id="vehicle-49" type="passenger" color="Yellow" depart="0.49" route="trip-49"/>

   <route id="trip-50" color="Magenta" edges="-513235538#2 513235538#0 297294791#0 297294792#0 589905511#0 120478695#0 120478695#3 120478695#4 120478695#5 468441885#0 468441885#2 202992519#0 -6057595#2 29961175#0"/>
   <vehicle id="vehicle-50" type="passenger" color="Yellow" depart="0.5" route="trip-50"/>

   <route id="trip-51" color="Magenta" edges="397315035#2 -397315035#2 -397315035#1 535718852#0 45838763#0 397316203#0 70948803#0 397316176#0 397316171 397316180#0 397316186#0 397316195#0 397316204#0 347003327#0 397327124#0 468433796 397327121#0 347003229#0 347003229#2 589551073#0 1051018092#0 345633934 1051018093#0 589539535#0 -130908283#4 -130908283#2 -130908283#1"/>
   <vehicle id="vehicle-51" type="passenger" color="Yellow" depart="0.51" route="trip-51"/>

   <route id="trip-52" color="Magenta" edges="-436136927#8 436136927#7 121980352 -520532363 -6060903#4 -6060903#2 -6060903#1 469165492#0 469165492#2 1049287312#0 1049287312#2 126303354#0 126303354#2 345709542#0 1048676964#0 298848145#0 130285121#0 508158271 508158272#0 130889749#0 130889749#2 397316524#0 -397316522 347003330#4 589533563#0 589539518#0 589539518#2 297380210#0 297380210#2 -297380214#6 -297380214#2 -397329572#1 -397329570 -397329575#1 -130908059#2 -6057544#5 -6057544#2 -6057544#1"/>
   <vehicle id="vehicle-52" type="passenger" color="Yellow" depart="0.52" route="trip-52"/>

   <route id="trip-53" color="Magenta" edges="6057581#3 6057581#4 6057581#5 6057581#6 920893151#0 397327118#0 131520206#0 509325421 468450542 130285122#0 126303355#0 347003228#0 347003229#0 347003229#2 589551073#0 -6061944#3"/>
   <vehicle id="vehicle-53" type="passenger" color="Yellow" depart="0.53" route="trip-53"/>

   <route id="trip-54" color="Magenta" edges="26707982#0 130285133#0-AddedOnRampEdge 130285133#0 130889756#3 130889756#5 130889756#7 130889757#0 698748857#0 589539536#0 589539536#2 589539536#3 589539536#4 590581668#0 590581668#2 1049842802#0 1049842803 1049842804 589539534#0 -469165492#2 -469165492#1 6060903#0 6060903#2 6060903#3 520532363 476103809#0 298832254#0 298832261#0 126303356#0 476103811 476103813#0 421077027 126303361#0 126303361#3"/>
   <vehicle id="vehicle-54" type="passenger" color="Yellow" depart="0.54" route="trip-54"/>

   <route id="trip-55" color="Magenta" edges="47916245#0 120478529#0 120478529#1 1049253134 45839048#0 50511237#0 297296770#0 6056532#0 45838762#1 971624710 6062876#0 252140542#0 252140542#3 589539519#0 589539519#2 589539517#0 297444238#0 542269314#0 509649677 397317304 397317307#0 297444235#0 297444228#0 297759292#0"/>
   <vehicle id="vehicle-55" type="passenger" color="Yellow" depart="0.55" route="trip-55"/>

   <route id="trip-56" color="Magenta" edges="-421037430#2 6056532#0 45838762#1 6062201#0 -130788155#2 -434444693#2 434444693#0"/>
   <vehicle id="vehicle-56" type="passenger" color="Yellow" depart="0.56" route="trip-56"/>

   <route id="trip-57" color="Magenta" edges="1060936417 -468433800 468469927#0 468469927#2 460536376#0 468469923#0 468469931#0 -126303361#4 -126303361#1 -421077027 -723610179 -468433795#1 -203119342#1 -397327121#1 -468433796 -397327124#1 -347003327#2 -397316204#2 -509466050#2"/>
   <vehicle id="vehicle-57" type="passenger" color="Yellow" depart="0.57" route="trip-57"/>

   <route id="trip-58" color="Magenta" edges="50428539#6 509326253#0 687108617#0 435106239#0 469154542 6057417#0 6056366#0 6056366#3 130285119#0 130285119#2 130285119#3 -923370378#9 -923370378#7 -923370378#6 -6055383#2"/>
   <vehicle id="vehicle-58" type="passenger" color="Yellow" depart="0.58" route="trip-58"/>

   <route id="trip-59" color="Magenta" edges="589551092#0 -589551092#0 146537587#0 397324962 29961168#0 131052386#0 297294791#0 297294792#0 589905511#0 120478695#0 120478695#3 120478695#4 120478695#5 468441885#0 468441885#2 202992519#0 589551087#0 -589551087#2"/>
   <vehicle id="vehicle-59" type="passenger" color="Yellow" depart="0.59" route="trip-59"/>

   <route id="trip-60" color="Magenta" edges="397327938 -397327938 -397327939#1 -397327932#1 -397327934#2 120478696#0 409551583 45838768#0 589551092#0"/>
   <vehicle id="vehicle-60" type="passenger" color="Yellow" depart="0.6" route="trip-60"/>

   <route id="trip-61" color="Magenta" edges="-352412039#1 -298815729#1 -723610179 -468433795#1 -203119342#1 347003229#0 347003229#2 589551073#0 1051018092#0 345633934 1051018093#0 589539535#0 589533502#0 469165486#0 469165487 469165488#0 590581668#0 590581668#2"/>
   <vehicle id="vehicle-61" type="passenger" color="Yellow" depart="0.61" route="trip-61"/>

   <route id="trip-62" color="Magenta" edges="50511365#3 50511365#4 50511365#6 -130788227#3 -130788227#1 -421037430#2 6056532#0 45838762#1 971624710 6062876#0 509325421 50799689#0 -321444900 -648026207#1 -333922462#1 333922526#0 333922526#2 347003329#0 333922765#0 397317310#0 397319284#0 -24238018#5"/>
   <vehicle id="vehicle-62" type="passenger" color="Yellow" depart="0.62" route="trip-62"/>

   <route id="trip-63" color="Magenta" edges="-723610179 -468433795#1 -203119342#1 -397327121#1 -468433796 -397327124#1 298848145#0 130285121#0 508158271 508158272#0 50260020#0 50260020#2 50260020#4 50260020#6 -297382770#5 -297382770#2 397321704#0 397321703#0 -397329578#2 -397329580#1 6061387#0"/>
   <vehicle id="vehicle-63" type="passenger" color="Yellow" depart="0.63" route="trip-63"/>

   <route id="trip-64" color="Magenta" edges="436136927#5 -436136927#5 469159258#0 469159258#1 469159258#2 468469919#0 468469927#0 468469927#2 460536376#0 468469923#0 468469931#0 468469935#0 468469935#2 468469943#0 468469939#0 468469946#0 200019461#0 435424520#0 -420781368#1 -920893151#1 -6057581#6 -6057581#5 -6057581#4 -6057581#3 -6057581#2 -6057581#1 -6056532#2 50710195#0 50710195#2 297296749#0 -466352083#1 -50511365#1 -50511365#0 50511365#0"/>
   <vehicle id="vehicle-64" type="passenger" color="Yellow" depart="0.64" route="trip-64"/>

   <route id="trip-65" color="Magenta" edges="50799230#2 -50799230#2 -50799230#1 6057204#0 985426725#0 985426724 468436769#0 6056069#0 589533583#0 589539536#0 589539536#2 589539536#3 589539536#4 590581668#0 590581668#2 1049842802#0 1049842803 1049842804 589539534#0 -469165492#2 -469165492#1 6060903#0 6060903#2 6060903#3 520532363 476103809#0 298832254#0 298832261#0 298832240 864614823#0 864614823#2 468469923#0 468469931#0 468469935#0 468469935#2 468469943#0 468469939#0"/>
   <vehicle id="vehicle-65" type="passenger" color="Yellow" depart="0.65" route="trip-65"/>

   <route id="trip-66" color="Magenta" edges="50018069 321477125#3 321477125#4 421075190#1 421075190#2 421075190#3 543909823#0 985426725#0 985426724 468436769#0 6056069#0 589533583#0 589539536#0 589539536#2 589539536#3 589539536#4 590581668#0 590581668#2 1049842802#0 1049842803 1049842804 589539534#0 1049287312#0 1049287312#2 126303354#0 126303354#2 345709542#0 1048676964#0 -347003327#2 74100353#0 508158273 508158268"/>
   <vehicle id="vehicle-66" type="passenger" color="Yellow" depart="0.66" route="trip-66"/>

   <route id="trip-67" color="Magenta" edges="50429923 583698431#0 50429922 -352412106 352412106 521221938 521198981 203119343 50429924 583698432 520537744 520537746 583705854 535520845#0 535520845#1 535520845#2 352412093#0 -352411913#1 -354202945#1 476103809#0 298832254#0 298832261#0 126303356#0 476103811 476103812 49999718#1"/>
   <vehicle id="vehicle-67" type="passenger" color="Yellow" depart="0.67" route="trip-67"/>

   <route id="trip-68" color="Magenta" edges="130802361#0 125568108#0 -125568108#1 -130788190 -130788195 435424520#0 -420781368#1 -920893151#1 -6057581#6 -6057581#5 -6057581#4 -6057581#3 -6057581#2 -6057581#1 954271698#0 988196201#0 29961175#0 468469890#0 468469890#2 -296355738#2 296355738#1"/>
   <vehicle id="vehicle-68" type="passenger" color="Yellow" depart="0.68" route="trip-68"/>

   <route id="trip-69" color="Magenta" edges="468436769#0 -468436769#1 -985426724 -985426725#1 -543909823#1 345633935#0 345633935#3 345633935#5 345633935#7 6054895#0"/>
   <vehicle id="vehicle-69" type="passenger" color="Yellow" depart="0.69" route="trip-69"/>

   <route id="trip-70" color="Magenta" edges="476103806 476103801 321477125#6 520537743#0 520537743#1 354436361#0 354436361#1 354436361#2 583698434 583698432 520537744 520537746 583705854 535520845#0 535520845#1 535520845#2 352412093#0 -352411913#1 -354202945#1 476103809#0 298832254#0 298832261#0 126303356#0 476103811 476103813#0 298815729#0 352412039#0 47920785#0 352412073 509646034#0 434444693#0 130788192#0 435424520#0 -420781368#1 -854143897#2 -397363850#2 397363850#1"/>
   <vehicle id="vehicle-70" type="passenger" color="Yellow" depart="0.7" route="trip-70"/>
