<?xml version="1.0" encoding="UTF-8"?>

<!-- generated on 2022-06-21 13:26:55 by Eclipse SUMO polyconvert Version 1.10.0
<configuration xmlns:xsi="http://www.w3.org/2001/XMLSchema-instance" xsi:noNamespaceSchemaLocation="http://sumo.dlr.de/xsd/polyconvertConfiguration.xsd">

    <input>
        <net-file value="washingtondc200.net.xml"/>
        <osm-files value="washingtondc200.osm.xml"/>
    </input>

    <output>
        <output-file value="washingtondc200.poly.xml"/>
    </output>

    <processing>
        <poi-layer-offset value="5"/>
    </processing>

</configuration>
-->

<additional xmlns:xsi="http://www.w3.org/2001/XMLSchema-instance" xsi:noNamespaceSchemaLocation="http://sumo.dlr.de/xsd/additional_file.xsd">
    <location netOffset="-322143.38,-4306578.06" convBoundary="-1741.16,-1144.89,3578.73,5723.75" origBoundary="-77.070987,38.879932,-77.009580,38.942193" projParameter="+proj=utm +zone=18 +ellps=WGS84 +datum=WGS84 +units=m +no_defs"/>

    <poly id="1015893835" type="building" color="255,230,230" fill="1" layer="-1.00" shape="2759.252925,922.370401 2765.101225,922.374176 2765.010018,911.983015 2759.010662,911.427392 2759.000648,917.246019 2759.252925,922.370401"/>
    <poly id="1020448063" type="amenity" color="237,199,199" fill="1" layer="-1.00" shape="333.604401,784.077088 332.679044,757.925693 311.109041,758.387633 311.523268,784.572710 333.604401,784.077088"/>
    <poly id="1020448063#1" type="building" color="255,230,230" fill="1" layer="-1.00" shape="333.604401,784.077088 332.679044,757.925693 311.109041,758.387633 311.523268,784.572710 333.604401,784.077088"/>
    <poly id="1020448074" type="building" color="255,230,230" fill="1" layer="-1.00" shape="306.020010,781.009710 306.043273,782.819142 304.455639,782.832573 304.491749,786.373944 292.322964,786.613804 287.352910,786.703172 287.007729,770.554574 286.756530,758.978722 282.150223,759.037718 281.545581,726.694182 281.412920,721.944640 280.690684,692.479687 285.408450,689.653289 285.128438,671.382363 284.156813,671.393072 284.138233,669.405870 284.936149,669.387957 284.904021,666.024161 296.101865,665.817200 298.651977,665.771059 301.878583,665.709734 303.232610,719.844730 303.231816,725.607733 295.464102,725.926455 295.614881,733.029641 303.135059,732.894140 304.224476,781.038911 306.020010,781.009710"/>
    <poly id="1020448074#1" type="tourism" color="207,245,201" fill="1" layer="-2.00" shape="306.020010,781.009710 306.043273,782.819142 304.455639,782.832573 304.491749,786.373944 292.322964,786.613804 287.352910,786.703172 287.007729,770.554574 286.756530,758.978722 282.150223,759.037718 281.545581,726.694182 281.412920,721.944640 280.690684,692.479687 285.408450,689.653289 285.128438,671.382363 284.156813,671.393072 284.138233,669.405870 284.936149,669.387957 284.904021,666.024161 296.101865,665.817200 298.651977,665.771059 301.878583,665.709734 303.232610,719.844730 303.231816,725.607733 295.464102,725.926455 295.614881,733.029641 303.135059,732.894140 304.224476,781.038911 306.020010,781.009710"/>
    <poly id="1020448076" type="leisure" color="207,245,201" fill="1" layer="-2.00" shape="282.281005,770.660690 285.047657,770.598578 287.007729,770.554574 286.756530,758.978722 282.150223,759.037718 282.217334,764.732573 282.281005,770.660690"/>
    <poly id="1022256126" type="man_made" color="255,230,230" fill="1" layer="-1.00" shape="604.841005,805.154443 604.810445,804.177976 605.426217,804.164177 605.448104,805.140838 604.841005,805.154443"/>
    <poly id="1022256127" type="landuse" color="194,194,130" fill="1" layer="-3.00" shape="633.010021,886.992579 632.843124,879.156899 636.884878,879.077441 637.060195,886.901828 633.010021,886.992579"/>
    <poly id="1022256128" type="landuse" color="194,194,130" fill="1" layer="-3.00" shape="615.509099,808.035600 615.499829,803.749666 622.821446,803.663330 622.923875,807.847240 615.509099,808.035600"/>
    <poly id="1022256130" type="landuse" color="194,194,130" fill="1" layer="-3.00" shape="632.782290,874.505689 632.615394,866.670010 636.656905,866.579453 636.832470,874.414938 632.782290,874.505689"/>
    <poly id="1022256131" type="landuse" color="194,194,130" fill="1" layer="-3.00" shape="631.736528,817.765510 631.560961,809.930026 635.611423,809.850374 635.778064,817.674954 631.736528,817.765510"/>
    <poly id="1022256132" type="landuse" color="194,194,130" fill="1" layer="-3.00" shape="632.052973,830.339243 631.886079,822.503564 635.927861,822.424106 636.094503,830.248687 632.052973,830.339243"/>
    <poly id="1022256134" type="man_made" color="255,230,230" fill="1" layer="-1.00" shape="605.167187,806.157597 604.991990,806.083795 604.901531,805.919262 604.907965,805.819182 604.957764,805.718130 605.111636,805.614746 605.302936,805.632667 605.417921,805.730026 605.456841,805.917922 605.373843,806.086341 605.288358,806.143777 605.167187,806.157597"/>
    <poly id="1022256135" type="man_made" color="255,230,230" fill="1" layer="-1.00" shape="633.214957,806.295272 633.161181,803.120735 634.349360,803.094113 634.403384,806.279748 633.214957,806.295272"/>
    <poly id="1022256136" type="man_made" color="255,230,230" fill="1" layer="-1.00" shape="623.997285,804.247702 623.974903,803.248844 627.392499,803.194473 627.405959,804.182427 623.997285,804.247702"/>
    <poly id="1022256139" type="man_made" color="255,230,230" fill="1" layer="-1.00" shape="604.915058,807.684494 604.893171,806.707833 605.508942,806.694034 605.530829,807.670695 604.915058,807.684494"/>
    <poly id="1022256140" type="man_made" color="255,230,230" fill="1" layer="-1.00" shape="628.508902,804.224337 628.486769,803.236577 631.904117,803.171110 631.917825,804.170162 628.508902,804.224337"/>
    <poly id="1022256142" type="man_made" color="255,230,230" fill="1" layer="-1.00" shape="635.462090,807.832793 635.408067,804.647158 636.605167,804.631440 636.658941,807.805976 635.462090,807.832793"/>
    <poly id="1022268359" type="leisure" color="207,245,201" fill="1" layer="-2.00" shape="390.479999,896.450331 390.349932,892.200412 391.492992,892.097037 396.245162,891.968203 399.200112,874.002236 415.037339,873.680232 411.959155,895.824064 390.479999,896.450331"/>
    <poly id="1022360689" type="landuse" color="194,194,130" fill="1" layer="-3.00" shape="362.243127,1037.893987 362.230334,1036.550688 363.944339,1034.824411 366.086720,1034.787436 366.137868,1037.839893 362.243127,1037.893987"/>
    <poly id="1022360690" type="landuse" color="194,194,130" fill="1" layer="-3.00" shape="360.927749,1032.637995 360.613005,1023.639700 365.763289,1023.468597 365.909472,1027.662635 362.432754,1027.785075 362.510828,1030.104063 365.909492,1029.983374 365.991052,1032.457739 360.927749,1032.637995"/>
    <poly id="1029196147" type="building" color="255,230,230" fill="1" layer="-1.00" shape="436.327173,891.302169 473.407910,890.681440 473.206770,879.004537 472.970208,864.974379 472.861491,858.192269 472.849294,857.648447 435.777075,858.268978 435.991296,871.300279 436.078554,876.350646 436.327173,891.302169"/>
    <poly id="1029196148" type="building" color="255,230,230" fill="1" layer="-1.00" shape="404.833265,828.826877 400.647530,829.065139 400.747610,824.243753 399.395645,824.318502 399.393568,823.452436 399.194984,813.441074 402.986508,813.422632 402.980866,813.944647 402.799833,824.053358 404.698975,824.388286 404.833265,828.826877"/>
    <poly id="1029196149" type="parking" color="184,184,179" fill="1" layer="-1.00" shape="434.894259,892.022761 434.510771,878.795384 420.749085,879.192931 421.132597,892.420308 434.894259,892.022761"/>
    <poly id="1029196149#1" type="building" color="255,230,230" fill="1" layer="-1.00" shape="434.894259,892.022761 434.510771,878.795384 420.749085,879.192931 421.132597,892.420308 434.894259,892.022761"/>
    <poly id="1029428350" type="building" color="255,230,230" fill="1" layer="-1.00" shape="276.350243,1185.529122 364.423787,1183.774067 365.636523,1224.665166 298.945790,1255.143715 295.994957,1249.313729 293.193682,1250.531443 290.071540,1244.027959 293.199127,1242.658565 289.893468,1234.937759 284.986554,1224.687877 280.942581,1215.773313 280.563489,1212.028664 280.536575,1210.830033 277.218731,1210.682452 276.350243,1185.529122"/>
    <poly id="1029428351" type="building" color="255,230,230" fill="1" layer="-1.00" shape="260.633285,1202.771278 264.752682,1202.678773 265.039341,1215.830610 268.681750,1215.748817 268.062039,1186.992195 260.291539,1187.166688 260.633285,1202.771278"/>
    <poly id="1029428352" type="landuse" color="194,194,130" fill="1" layer="-3.00" shape="423.749821,876.416236 436.078554,876.350646 435.991296,871.300279 423.723514,871.375605 423.749821,876.416236"/>
    <poly id="1034668660" type="building" color="255,230,230" fill="1" layer="-1.00" shape="1721.354779,1236.038819 1721.201693,1226.048706 1749.000480,1225.607285 1749.153531,1235.597397 1721.354779,1236.038819"/>
    <poly id="1034668666" type="leisure" color="207,245,201" fill="1" layer="-2.00" shape="1815.023535,1272.106208 1809.662483,1273.713472 1805.173008,1277.055755 1802.101491,1281.732255 1800.816662,1287.157358 1801.478127,1292.705690 1803.634258,1297.188085 1807.072694,1300.809140 1811.446817,1303.199042 1816.352762,1304.144703 1821.320008,1303.556663 1825.854981,1301.479221 1829.546107,1298.132512 1832.035578,1293.813200 1833.072363,1288.937716 1833.188980,1282.872387 1831.010383,1277.380030 1826.847456,1273.564117 1821.044100,1271.672384 1815.023535,1272.106208"/>
    <poly id="1035212313" type="landuse" color="194,194,130" fill="1" layer="-3.00" shape="960.490346,12.275736 962.925499,121.184366 962.966221,123.781781 956.228096,123.987967 947.847923,123.720096 940.361571,121.899899 934.152177,118.974069 929.155811,115.188318 924.199788,110.102505 923.379052,111.042489 928.954139,116.647446 932.630853,119.629913 938.146113,122.560161 944.491028,124.561335 950.116243,125.423797 956.260606,125.441858 962.993034,125.369046 963.355079,148.934643 962.297155,148.969402 960.588963,149.029806 958.913008,149.755726 956.956261,149.954936 954.936802,149.678078 952.211521,148.106737 949.688499,147.818933 947.965925,147.624270 945.519776,148.833782 943.142271,150.008449 936.928397,153.089957 935.734715,154.426919 935.002012,156.975007 935.068074,161.093097 928.110660,161.193173 924.416203,160.520730 919.991389,158.620980 912.163377,151.611801 904.436395,142.912567 898.360398,135.475574 891.654525,123.933107 886.015468,111.978141 885.100411,109.089373 884.971702,106.827045 905.230005,106.618188 904.955773,83.106141 904.886879,76.534139 905.939469,72.768563 909.332614,66.563287 912.407670,63.207739 935.902031,38.897635 951.947047,21.794083 960.490346,12.275736"/>
    <poly id="1035212315" type="landuse" color="194,194,130" fill="1" layer="-3.00" shape="940.930770,164.815060 941.110108,169.730102 938.499377,169.788486 938.641815,175.381694 942.067606,175.293979 942.109799,177.180708 931.917923,177.386426 931.934801,178.141118 909.460732,178.599348 908.414698,178.389561 907.811494,177.803439 907.502678,176.799887 885.930136,176.827172 885.057787,175.847330 884.787224,122.632105 885.460504,121.695415 886.386855,121.985604 889.678859,128.330052 893.512342,134.828949 898.198823,141.830653 903.947162,148.197890 911.100401,155.688520 917.966321,160.809335 920.935471,162.808264 924.418315,164.107261 926.488338,164.704994 929.991217,164.959773 940.930770,164.815060"/>
    <poly id="1035212324" type="landuse" color="194,194,130" fill="1" layer="-3.00" shape="787.276056,188.273177 811.704113,187.493270 812.075780,191.304717 811.810418,192.243389 811.289034,192.599280 787.511506,193.364629 787.276056,188.273177"/>
    <poly id="1035212334" type="landuse" color="194,194,130" fill="1" layer="-3.00" shape="750.244421,189.679532 781.057151,188.412374 781.110461,193.507903 752.496574,194.148429 751.256715,193.421115 750.533019,192.104840 750.244421,189.679532"/>
    <poly id="1035212350" type="landuse" color="194,194,130" fill="1" layer="-3.00" shape="119.921486,12.549091 238.156583,195.197477 239.187094,193.941795 240.182211,193.042236 242.550035,192.600434 230.353199,173.853107 216.499267,152.033880 203.220159,131.856264 198.153791,124.197226 190.933666,112.988858 186.219953,105.577299 178.869691,94.371862 167.858120,77.407952 152.513726,53.767926 135.790062,27.838170 123.961079,9.649024 119.921486,12.549091"/>
    <poly id="1035593979" type="water" color="181,209,209" fill="1" layer="-4.00" shape="743.940519,268.969775 747.077703,271.109229 751.774040,267.695104 749.674911,265.021625 743.940519,268.969775"/>
    <poly id="1035599721" type="landuse" color="194,194,130" fill="1" layer="-3.00" shape="1334.486417,180.274769 1364.661264,179.590422 1364.574356,175.694884 1334.399247,176.368133 1334.486417,180.274769"/>
    <poly id="1035599729" type="landuse" color="194,194,130" fill="1" layer="-3.00" shape="1010.380835,188.157314 1039.463080,187.507254 1039.314057,183.557579 1010.353475,184.216023 1010.380835,188.157314"/>
    <poly id="1035599730" type="landuse" color="194,194,130" fill="1" layer="-3.00" shape="1104.296991,186.036232 1131.713921,185.423718 1131.642510,181.450103 1104.225815,182.073715 1104.296991,186.036232"/>
    <poly id="1035599731" type="landuse" color="194,194,130" fill="1" layer="-3.00" shape="1134.593522,185.359391 1175.653615,184.431169 1175.582226,180.457554 1134.522113,181.385776 1134.593522,185.359391"/>
    <poly id="1035599732" type="landuse" color="194,194,130" fill="1" layer="-3.00" shape="1178.385767,184.370151 1204.744279,183.770424 1204.629289,179.786679 1178.270764,180.386406 1178.385767,184.370151"/>
    <poly id="1035599733" type="landuse" color="194,194,130" fill="1" layer="-3.00" shape="1207.485104,183.709223 1215.603498,183.527948 1216.240876,182.925208 1216.209405,179.961161 1215.505861,179.543816 1207.344096,179.726059 1207.485104,183.709223"/>
    <poly id="1035599734" type="leisure" color="207,245,201" fill="1" layer="-2.00" shape="944.726718,169.638121 944.664175,166.841323 944.652014,166.297501 944.880243,166.025902 949.467297,165.867806 949.961453,166.234290 950.185089,177.011229 944.581751,177.125428 944.539310,175.227601 947.948003,175.151375 947.823166,169.568877 944.726718,169.638121"/>
    <poly id="1035599736" type="leisure" color="207,245,201" fill="1" layer="-2.00" shape="935.068074,161.093097 940.767082,160.987856 940.729396,160.466813 940.623404,155.339156 946.564779,155.206292 946.521346,153.264071 946.497521,152.198624 951.164134,152.105374 951.187215,153.137526 951.223958,155.168728 957.096192,155.048521 957.209357,160.109394 962.595621,159.988954 962.297155,148.969402 960.588963,149.029806 958.913008,149.755726 956.956261,149.954936 954.936802,149.678078 952.211521,148.106737 949.688499,147.818933 947.965925,147.624270 945.519776,148.833782 943.142271,150.008449 936.928397,153.089957 935.734715,154.426919 935.002012,156.975007 935.068074,161.093097"/>
    <poly id="1037428540" type="building" color="255,230,230" fill="1" layer="-1.00" shape="165.583111,1400.281890 170.995812,1400.215790 171.131586,1410.506184 165.719141,1410.583383 165.583111,1400.281890"/>
    <poly id="1037995881" type="landuse" color="194,194,130" fill="1" layer="-3.00" shape="1535.350437,-7.841031 1533.342147,-8.784520 1525.464055,6.858802 1511.994702,29.000404 1507.239228,37.567581 1502.621262,47.242089 1498.277327,58.698220 1494.117927,72.981738 1491.227277,89.679835 1490.325612,106.455737 1492.003406,166.534909 1497.283825,166.728102 1495.792744,91.276957 1496.162080,82.152414 1497.123652,74.291618 1499.031627,66.842779 1503.417762,53.387003 1508.264037,41.886366 1515.100334,29.730662 1530.217163,2.466759 1535.350437,-7.841031"/>
    <poly id="1037995882" type="landuse" color="194,194,130" fill="1" layer="-3.00" shape="1618.104486,164.368729 1620.506799,164.304108 1620.226001,155.205165 1617.823932,155.280884 1618.104486,164.368729"/>
    <poly id="1037995883" type="landuse" color="194,194,130" fill="1" layer="-3.00" shape="1617.540726,149.579787 1619.960391,149.514780 1619.010157,113.481582 1616.590481,113.546589 1617.540726,149.579787"/>
    <poly id="1039493792" type="building" color="255,230,230" fill="1" layer="-1.00" shape="2730.663787,1351.089427 2732.120710,1351.057163 2732.082369,1349.325814 2730.625446,1349.358078 2730.663787,1351.089427"/>
    <poly id="1040612084" type="building" color="255,230,230" fill="1" layer="-1.00" shape="2267.311039,1690.793876 2267.700437,1708.329358 2261.205269,1708.473595 2260.995072,1692.366533 2263.300293,1692.248717 2263.200604,1690.885154 2267.311039,1690.793876"/>
    <poly id="1044659704" type="building" color="255,230,230" fill="1" layer="-1.00" shape="2636.634133,1430.821483 2642.988339,1433.312302 2639.148310,1442.480331 2632.913796,1439.909137 2636.634133,1430.821483"/>
    <poly id="1044659705" type="building" color="255,230,230" fill="1" layer="-1.00" shape="2642.988339,1433.312302 2648.084666,1435.420153 2644.034535,1444.504005 2639.148310,1442.480331 2642.988339,1433.312302"/>
    <poly id="1046377406" type="building" color="255,230,230" fill="1" layer="-1.00" shape="2657.964234,1374.985123 2688.182450,1374.126943 2687.987475,1366.891558 2689.252871,1366.830217 2689.037849,1359.473134 2687.832665,1359.510934 2687.534973,1348.813426 2688.705961,1348.798592 2688.515920,1344.527823 2658.822906,1345.207803 2658.900829,1350.291636 2657.357184,1350.325834 2657.964234,1374.985123"/>
    <poly id="1046377406#1" type="tourism" color="207,245,201" fill="1" layer="-2.00" shape="2657.964234,1374.985123 2688.182450,1374.126943 2687.987475,1366.891558 2689.252871,1366.830217 2689.037849,1359.473134 2687.832665,1359.510934 2687.534973,1348.813426 2688.705961,1348.798592 2688.515920,1344.527823 2658.822906,1345.207803 2658.900829,1350.291636 2657.357184,1350.325834 2657.964234,1374.985123"/>
    <poly id="1046379784" type="building" color="255,230,230" fill="1" layer="-1.00" shape="2738.385037,1286.405159 2738.512511,1298.039155 2731.522949,1298.205038 2731.205659,1286.619661 2736.364653,1286.461002 2738.385037,1286.405159"/>
    <poly id="1060159754" type="landuse" color="194,194,130" fill="0" layer="-3.00" shape="1420.890711,407.076917 1419.551563,417.455641 1418.050901,425.650495 1416.433813,432.126839 1413.105949,446.325257 1413.650053,449.710921 1414.870657,453.470133 1421.036335,473.130904 1421.826043,475.078684 1473.310567,470.843631 1475.064798,470.127177 1474.679103,449.327033"/>
    <poly id="1060159755" type="tourism" color="207,245,201" fill="0" layer="-2.00" shape="1487.325556,759.255282 1487.258720,731.352614 1486.089790,683.209863 1484.659513,657.591696 1484.271180,650.293974 1484.405958,585.122058 1482.771714,552.301998 1480.719099,449.736451"/>
    <poly id="1060159756" type="landuse" color="194,194,130" fill="0" layer="-3.00" shape="1440.873610,397.670380 1438.262672,399.272053 1435.810112,399.804218 1433.089691,399.609499 1430.342290,398.205056 1427.983213,396.314484 1426.600521,393.458303 1425.851985,389.855119 1421.217234,390.202777 1421.774828,399.251141 1420.890711,407.076917"/>
    <poly id="1060159757" type="landuse" color="194,194,130" fill="0" layer="-3.00" shape="1474.679103,449.327033 1474.710678,429.727914 1473.535689,370.026140 1472.659697,322.176688 1472.167786,298.947160"/>
    <poly id="1060159758" type="tourism" color="207,245,201" fill="0" layer="-2.00" shape="1480.719099,449.736451 1478.593316,343.108517"/>
    <poly id="1064909762" type="leisure" color="207,245,201" fill="1" layer="-2.00" shape="490.579387,675.122983 490.392763,664.478432 489.950440,664.488350 489.925765,663.000967 494.713758,662.915813 494.710486,662.382894 503.228367,662.236320 503.456107,675.489389 501.131249,675.519309 501.118309,674.942191 490.579387,675.122983"/>
    <poly id="123826009" type="building" color="255,230,230" fill="1" layer="-1.00" shape="1636.968642,1271.596909 1635.879282,1228.160437 1591.881538,1229.396340 1592.790970,1267.084997 1611.176482,1266.686338 1611.119039,1271.895358 1636.968642,1271.596909"/>
    <poly id="124466326" type="parking" color="184,184,179" fill="1" layer="-1.00" shape="2796.935179,1242.170343 2848.586200,1241.371379 2847.291776,1198.561468 2839.010199,1198.766946 2838.710847,1193.865680 2795.771200,1194.682826 2796.935179,1242.170343"/>
    <poly id="124466327" type="tourism" color="207,245,201" fill="1" layer="-2.00" shape="2798.405510,1176.891700 2846.425115,1175.473588 2845.612650,1148.953428 2795.507866,1172.203403 2794.157804,1174.320807 2794.306413,1175.938677 2796.188902,1176.707586 2798.405510,1176.891700"/>
    <poly id="128774641" type="building" color="255,230,230" fill="1" layer="-1.00" shape="2179.658088,937.832477 2206.644951,936.344782 2205.074040,910.540965 2203.395860,880.297984 2175.407296,876.933329 2177.522584,916.693723 2179.658088,937.832477"/>
    <poly id="148284755" type="building" color="255,230,230" fill="1" layer="-1.00" shape="120.904498,1064.267194 121.635009,1089.823376 109.157212,1090.192633 87.816574,1090.783327 88.732005,1122.631348 90.414223,1122.582432 97.394595,1122.381119 103.924497,1122.212145 107.375906,1122.123469 115.674500,1121.892545 126.938345,1121.561680 130.389754,1121.473014 145.781215,1121.027212 146.174266,1133.499318 146.573278,1147.781247 149.660182,1147.689676 150.042481,1161.228011 174.356832,1160.537351 171.562686,1062.818000 143.181096,1063.622250 120.904498,1064.267194"/>
    <poly id="152132898" type="amenity" color="237,199,199" fill="1" layer="-1.00" shape="2206.499430,671.132143 2191.745305,671.393173 2191.578716,661.547743 2172.487364,661.871821 2173.367419,694.852969 2192.007454,694.527808 2206.709498,694.267932 2206.499430,671.132143"/>
    <poly id="152132898#1" type="building" color="255,230,230" fill="1" layer="-1.00" shape="2206.499430,671.132143 2191.745305,671.393173 2191.578716,661.547743 2172.487364,661.871821 2173.367419,694.852969 2192.007454,694.527808 2206.709498,694.267932 2206.499430,671.132143"/>
    <poly id="153662270" type="building" color="255,230,230" fill="1" layer="-1.00" shape="139.671939,1326.022910 178.608627,1308.458631 176.409602,1245.725811 176.030718,1235.041136 144.867408,1235.974538 143.107126,1251.082275 143.169758,1264.294675 145.278973,1275.140340 146.284974,1278.593298 137.302250,1282.737092 131.127438,1277.079549 120.534959,1271.754478 110.223515,1268.510665 97.391944,1267.411071 90.889237,1268.012504 92.888005,1304.821897 106.690918,1308.220394 117.273133,1313.090408 127.417960,1319.347167 137.367242,1325.397356 139.671939,1326.022910"/>
    <poly id="153662277" type="building" color="255,230,230" fill="1" layer="-1.00" shape="152.825633,1233.730360 175.258601,1233.115277 173.976615,1186.096279 154.665092,1186.619011 151.543513,1186.711360 152.825633,1233.730360"/>
    <poly id="153662277#1" type="shop" color="237,199,255" fill="1" layer="-1.00" shape="152.825633,1233.730360 175.258601,1233.115277 173.976615,1186.096279 154.665092,1186.619011 151.543513,1186.711360 152.825633,1233.730360"/>
    <poly id="171530225" type="building" color="255,230,230" fill="1" layer="-1.00" shape="1308.755230,1121.418910 1308.807240,1130.356424 1333.602285,1129.825162 1333.553980,1127.660971 1334.534216,1127.650196 1334.385090,1120.968951 1334.228985,1120.972436 1333.257917,1121.005214 1333.098398,1111.914646 1313.977820,1112.441379 1314.176512,1121.342307 1308.755230,1121.418910"/>
    <poly id="171530225#1" type="historic" color="128,255,128" fill="1" layer="-1.00" shape="1308.755230,1121.418910 1308.807240,1130.356424 1333.602285,1129.825162 1333.553980,1127.660971 1334.534216,1127.650196 1334.385090,1120.968951 1334.228985,1120.972436 1333.257917,1121.005214 1333.098398,1111.914646 1313.977820,1112.441379 1314.176512,1121.342307 1308.755230,1121.418910"/>
    <poly id="172453198" type="historic" color="128,255,128" fill="1" layer="-1.00" shape="2357.404293,326.550088 2359.272364,325.875725 2358.837882,324.675045 2356.952464,325.349792 2357.404293,326.550088"/>
    <poly id="174192690" type="leisure" color="207,245,201" fill="1" layer="-2.00" shape="1168.073796,152.387933 1168.549726,176.028690 1171.638238,175.993023 1215.200556,174.809253 1296.604886,172.758865 1295.923156,149.211547 1168.073796,152.387933"/>
    <poly id="175895751" type="tourism" color="207,245,201" fill="1" layer="-2.00" shape="2330.518214,151.594785 2330.594141,152.670173 2331.067788,155.635495 2332.472481,156.759129 2334.182524,157.565080 2337.558972,157.601207 2485.708762,154.226849 2488.403880,153.278799 2489.783398,152.093420 2490.273301,150.705685 2490.346201,148.905248 2487.290377,13.006570 2487.170450,6.813291 2487.059119,4.139736 2486.159281,2.693976 2484.507049,1.364830 2482.902241,1.000665 2334.978439,1.782704 2328.512873,1.759592 2328.410253,8.868328 2330.518214,151.594785"/>
    <poly id="176111814" type="building" color="255,230,230" fill="1" layer="-1.00" shape="1412.610347,1021.197806 1400.432819,1021.413970 1399.909443,992.511000 1388.755732,992.726545 1388.749448,999.055929 1391.012995,999.005424 1391.438856,1022.369707 1389.530890,1022.412278 1389.632408,1027.739902 1400.421822,1027.532483 1400.403498,1026.711201 1403.751356,1026.647611 1412.866966,1026.477553 1413.612272,1073.108555 1413.715991,1079.313341 1434.794888,1079.054079 1433.204804,991.823741 1416.613619,992.171645 1412.077600,992.261735 1412.610347,1021.197806"/>
    <poly id="181611427" type="leisure" color="207,245,201" fill="1" layer="-2.00" shape="1202.127867,662.686240 1201.090583,663.253500 1185.729256,662.752689 1184.138625,661.855485 1183.131053,659.479538 1184.259041,629.562523 1185.752274,628.041243 1187.373380,627.583085 1202.728085,628.172882 1203.901174,628.635257 1204.078111,629.952675 1202.607329,657.734277 1202.386317,661.825464 1202.127867,662.686240"/>
    <poly id="181611427#1" type="sport" color="79,230,125" fill="1" layer="-2.00" shape="1202.127867,662.686240 1201.090583,663.253500 1185.729256,662.752689 1184.138625,661.855485 1183.131053,659.479538 1184.259041,629.562523 1185.752274,628.041243 1187.373380,627.583085 1202.728085,628.172882 1203.901174,628.635257 1204.078111,629.952675 1202.607329,657.734277 1202.386317,661.825464 1202.127867,662.686240"/>
    <poly id="181611530" type="landuse" color="194,194,130" fill="1" layer="-3.00" shape="1196.980024,757.773256 1189.541334,746.791039 1186.769920,740.423756 1184.104061,733.732101 1182.525792,728.337524 1181.526123,722.430345 1181.888533,709.519464 1184.205364,700.584558 1187.611284,692.624682 1191.948701,686.742649 1196.231622,682.693987 1202.941736,678.535600 1209.807234,675.894989 1219.347977,674.149580 1228.133682,673.176112 1251.618323,672.185363 1264.931810,673.076241 1276.117195,674.647574 1284.065827,676.602087 1291.363480,680.103482 1296.568714,683.940292 1300.392711,688.485277 1304.164156,695.341054 1307.231844,702.934298 1308.874693,710.059668 1309.661645,717.714923 1307.841985,730.269675 1305.321840,738.265242 1301.680174,746.163701 1297.601656,753.150286 1293.585102,758.636459 1286.960498,765.069170 1280.306172,770.170078 1274.111271,774.083717 1267.456468,776.830612 1261.678123,778.414238 1259.237585,779.090549 1251.704603,780.202578 1246.229314,780.591327 1240.776822,780.446581 1234.752663,779.570641 1229.788570,778.371227 1226.345446,777.282201 1222.054363,775.912307 1216.214054,773.555450 1210.261233,769.657661 1203.874259,764.581451 1196.980024,757.773256"/>
    <poly id="187177702" type="building" color="255,230,230" fill="1" layer="-1.00" shape="2530.969502,332.272931 2526.180839,326.460722 2533.214247,328.625539 2534.137123,328.371905 2535.062706,328.240353 2538.861046,321.083031 2539.039862,329.151554 2539.766568,329.834990 2540.356714,330.621387 2547.033033,332.727507 2540.458051,335.193920 2540.078019,336.057338 2539.470514,336.836966 2539.366750,343.901303 2535.520225,338.312493 2534.523846,337.990357 2533.646188,337.543447 2527.296718,340.004874 2531.010580,334.126361 2530.911858,333.195827 2530.969502,332.272931"/>
    <poly id="187177702#1" type="historic" color="128,255,128" fill="1" layer="-1.00" shape="2530.969502,332.272931 2526.180839,326.460722 2533.214247,328.625539 2534.137123,328.371905 2535.062706,328.240353 2538.861046,321.083031 2539.039862,329.151554 2539.766568,329.834990 2540.356714,330.621387 2547.033033,332.727507 2540.458051,335.193920 2540.078019,336.057338 2539.470514,336.836966 2539.366750,343.901303 2535.520225,338.312493 2534.523846,337.990357 2533.646188,337.543447 2527.296718,340.004874 2531.010580,334.126361 2530.911858,333.195827 2530.969502,332.272931"/>
    <poly id="187177702#2" type="tourism" color="207,245,201" fill="1" layer="-2.00" shape="2530.969502,332.272931 2526.180839,326.460722 2533.214247,328.625539 2534.137123,328.371905 2535.062706,328.240353 2538.861046,321.083031 2539.039862,329.151554 2539.766568,329.834990 2540.356714,330.621387 2547.033033,332.727507 2540.458051,335.193920 2540.078019,336.057338 2539.470514,336.836966 2539.366750,343.901303 2535.520225,338.312493 2534.523846,337.990357 2533.646188,337.543447 2527.296718,340.004874 2531.010580,334.126361 2530.911858,333.195827 2530.969502,332.272931"/>