<?xml version="1.0" encoding="UTF-8"?>

<!-- generated on 2022-06-21 13:26:51 by Eclipse SUMO netconvert Version 1.10.0
<configuration xmlns:xsi="http://www.w3.org/2001/XMLSchema-instance" xsi:noNamespaceSchemaLocation="http://sumo.dlr.de/xsd/netconvertConfiguration.xsd">

    <input>
        <type-files value="/opt/homebrew/opt/sumo/share/sumo/data/typemap/osmNetconvert.typ.xml"/>
        <osm-files value="washingtondc200.osm.xml"/>
    </input>

    <output>
        <output-file value="washingtondc200.net.xml"/>
    </output>

    <projection>
        <proj.utm value="true"/>
    </projection>

    <processing>
        <geometry.remove value="true"/>
        <roundabouts.guess value="true"/>
    </processing>

    <tls_building>
        <tls.discard-simple value="true"/>
        <tls.join value="true"/>
        <tls.guess-signals value="true"/>
    </tls_building>

    <ramp_guessing>
        <ramps.guess value="true"/>
    </ramp_guessing>

    <edge_removal>
        <remove-edges.by-vclass value="rail,rail_electric,bicycle,pedestrian"/>
        <remove-edges.by-type value="rail,rail_urban,rail_electric,railway.tram,railway.subway"/>
    </edge_removal>

    <junctions>
        <no-internal-links value="true"/>
        <junctions.join value="true"/>
    </junctions>

    <report>
        <aggregate-warnings value="5"/>
    </report>

</configuration>
-->

<net version="1.9" junctionCornerDetail="5" limitTurnSpeed="5.50" xmlns:xsi="http://www.w3.org/2001/XMLSchema-instance" xsi:noNamespaceSchemaLocation="http://sumo.dlr.de/xsd/net_file.xsd">

    <location netOffset="-322143.38,-4306578.06" convBoundary="0.00,0.00,3087.12,2515.56" origBoundary="-77.070987,38.883945,-77.010910,38.942193" projParameter="+proj=utm +zone=18 +ellps=WGS84 +datum=WGS84 +units=m +no_defs"/>

    <type id="highway.bridleway" priority="1" numLanes="1" speed="2.78" allow="pedestrian" oneway="1" width="2.00"/>
    <type id="highway.bus_guideway" priority="1" numLanes="1" speed="27.78" allow="bus" oneway="1"/>
    <type id="highway.cycleway" priority="1" numLanes="1" speed="8.33" allow="bicycle" oneway="0" width="1.00"/>
    <type id="highway.footway" priority="1" numLanes="1" speed="2.78" allow="pedestrian" oneway="1" width="2.00"/>
    <type id="highway.ford" priority="1" numLanes="1" speed="2.78" allow="army" oneway="0"/>
    <type id="highway.living_street" priority="2" numLanes="1" speed="2.78" disallow="tram rail_urban rail rail_electric rail_fast ship" oneway="0"/>
    <type id="highway.motorway" priority="14" numLanes="2" speed="39.44" allow="private emergency authority army vip passenger hov taxi bus coach delivery truck trailer motorcycle evehicle custom1 custom2" oneway="1"/>
    <type id="highway.motorway_link" priority="9" numLanes="1" speed="22.22" allow="private emergency authority army vip passenger hov taxi bus coach delivery truck trailer motorcycle evehicle custom1 custom2" oneway="1"/>
    <type id="highway.path" priority="1" numLanes="1" speed="2.78" allow="pedestrian bicycle" oneway="0" width="2.00"/>
    <type id="highway.pedestrian" priority="1" numLanes="1" speed="2.78" allow="pedestrian" oneway="1" width="2.00"/>
    <type id="highway.primary" priority="12" numLanes="2" speed="27.78" disallow="tram rail_urban rail rail_electric rail_fast ship" oneway="0"/>
    <type id="highway.primary_link" priority="7" numLanes="1" speed="22.22" disallow="tram rail_urban rail rail_electric rail_fast ship" oneway="0"/>
    <type id="highway.raceway" priority="15" numLanes="2" speed="83.33" allow="vip" oneway="0"/>
    <type id="highway.residential" priority="3" numLanes="1" speed="13.89" disallow="tram rail_urban rail rail_electric rail_fast ship" oneway="0"/>
    <type id="highway.secondary" priority="11" numLanes="1" speed="27.78" disallow="tram rail_urban rail rail_electric rail_fast ship" oneway="0"/>
    <type id="highway.secondary_link" priority="6" numLanes="1" speed="22.22" disallow="tram rail_urban rail rail_electric rail_fast ship" oneway="0"/>
    <type id="highway.service" priority="1" numLanes="1" speed="5.56" allow="pedestrian delivery bicycle" oneway="0"/>
    <type id="highway.stairs" priority="1" numLanes="1" speed="1.39" allow="pedestrian" oneway="1" width="2.00"/>
    <type id="highway.step" priority="1" numLanes="1" speed="1.39" allow="pedestrian" oneway="1" width="2.00"/>
    <type id="highway.steps" priority="1" numLanes="1" speed="1.39" allow="pedestrian" oneway="1" width="2.00"/>
    <type id="highway.tertiary" priority="10" numLanes="1" speed="22.22" disallow="tram rail_urban rail rail_electric rail_fast ship" oneway="0"/>
    <type id="highway.tertiary_link" priority="5" numLanes="1" speed="22.22" disallow="tram rail_urban rail rail_electric rail_fast ship" oneway="0"/>
    <type id="highway.track" priority="1" numLanes="1" speed="5.56" allow="pedestrian motorcycle moped bicycle" oneway="0"/>
    <type id="highway.trunk" priority="13" numLanes="2" speed="27.78" disallow="pedestrian bicycle tram rail_urban rail rail_electric rail_fast ship" oneway="0"/>
    <type id="highway.trunk_link" priority="8" numLanes="1" speed="22.22" disallow="pedestrian bicycle tram rail_urban rail rail_electric rail_fast ship" oneway="0"/>
    <type id="highway.unclassified" priority="4" numLanes="1" speed="13.89" disallow="tram rail_urban rail rail_electric rail_fast ship" oneway="0"/>
    <type id="highway.unsurfaced" priority="1" numLanes="1" speed="8.33" disallow="tram rail_urban rail rail_electric rail_fast ship" oneway="0"/>
    <type id="railway.highspeed" priority="21" numLanes="1" speed="69.44" allow="rail_fast" oneway="1"/>
    <type id="railway.light_rail" priority="19" numLanes="1" speed="27.78" allow="rail_urban" oneway="1"/>
    <type id="railway.preserved" priority="16" numLanes="1" speed="27.78" allow="rail" oneway="1"/>
    <type id="railway.rail" priority="20" numLanes="1" speed="44.44" allow="rail" oneway="1"/>
    <type id="railway.subway" priority="18" numLanes="1" speed="27.78" allow="rail_urban" oneway="1"/>
    <type id="railway.tram" priority="17" numLanes="1" speed="13.89" allow="tram" oneway="1"/>

    <edge id="-1001475180#1" from="9243738264" to="4944710028" priority="1" type="highway.service" shape="609.28,1749.11 609.19,1726.96 609.15,1724.18 609.03,1714.99">
        <lane id="-1001475180#1_0" index="0" allow="pedestrian delivery bicycle" speed="5.56" length="34.13" shape="607.68,1749.12 607.59,1726.97 607.55,1724.20 607.52,1721.34"/>
    </edge>
    <edge id="-1008299672" from="49748775" to="8326360834" priority="13" type="highway.trunk" shape="872.43,205.01 853.52,205.39 841.13,205.63">
        <lane id="-1008299672_0" index="0" disallow="pedestrian bicycle tram rail_urban rail rail_electric rail_fast ship" speed="11.18" length="41.40" shape="847.23,216.71 828.86,217.07"/>
        <lane id="-1008299672_1" index="1" disallow="pedestrian bicycle tram rail_urban rail rail_electric rail_fast ship" speed="11.18" length="41.40" shape="847.16,213.51 828.80,213.87"/>
        <lane id="-1008299672_2" index="2" disallow="pedestrian bicycle tram rail_urban rail rail_electric rail_fast ship" speed="11.18" length="41.40" shape="847.10,210.31 828.74,210.68"/>
        <lane id="-1008299672_3" index="3" disallow="pedestrian bicycle tram rail_urban rail rail_electric rail_fast ship" speed="11.18" length="41.40" shape="847.03,207.11 828.67,207.48"/>
        <param key="ref" value="US 50"/>
    </edge>
    <edge id="-1020448068#1" from="9411770930" to="9411770928" priority="1" type="highway.service" shape="279.67,759.32 279.76,764.78 280.13,786.07 280.26,793.93 280.39,801.46">
        <lane id="-1020448068#1_0" index="0" allow="pedestrian delivery bicycle" speed="5.56" length="42.14" shape="281.35,764.01 281.36,764.76 281.73,786.05 281.86,793.91 281.91,796.72"/>
    </edge>
    <edge id="-1020448068#2" from="5443794563" to="9411770930" priority="1" type="highway.service" shape="243.66,730.05 279.14,728.71 279.67,759.32">
        <lane id="-1020448068#2_0" index="0" allow="pedestrian delivery bicycle" speed="5.56" length="66.13" shape="248.27,728.28 280.72,727.05 281.19,754.61"/>
    </edge>
    <edge id="-1020448068#3" from="cluster_3382186608_5443794566_9411770934" to="5443794563" priority="1" type="highway.service" shape="232.85,730.20 243.66,730.05">
        <lane id="-1020448068#3_0" index="0" allow="pedestrian delivery bicycle" speed="5.56" length="28.42" shape="238.66,728.52 238.98,728.52"/>
    </edge>
    <edge id="-1020448069" from="9411770931" to="9411770930" priority="1" type="highway.service">
        <lane id="-1020448069_0" index="0" allow="pedestrian delivery bicycle" speed="5.56" length="31.78" shape="247.86,758.44 274.92,757.83"/>
    </edge>
    <edge id="-1020448070" from="9411770933" to="cluster_3382186608_5443794566_9411770934" priority="1" type="highway.service" shape="207.99,716.25 206.60,720.23">
        <lane id="-1020448070_0" index="0" allow="pedestrian delivery bicycle" speed="5.56" length="12.13" shape="209.73,716.12 209.66,716.31"/>
    </edge>
    <edge id="-1021859426#0" from="cluster_9424618592_9424665416_9424691318" to="cluster_9424665414_9424691319" priority="1" type="highway.service" shape="217.36,1658.05 217.47,1654.33 218.02,1652.07 218.25,1642.78 218.49,1637.88">
        <lane id="-1021859426#0_0" index="0" allow="pedestrian delivery bicycle" speed="5.56" length="22.62" shape="216.08,1653.27 216.43,1651.86 216.45,1650.79"/>
    </edge>
    <edge id="-1021859426#1" from="9424665415" to="cluster_9424618592_9424665416_9424691318" priority="1" type="highway.service" shape="201.52,1658.15 217.36,1658.05">
        <lane id="-1021859426#1_0" index="0" allow="pedestrian delivery bicycle" speed="5.56" length="19.91" shape="207.84,1656.51 212.76,1656.48"/>
    </edge>
    <edge id="-1021859429#0" from="cluster_9424665414_9424691319" to="9424665413" priority="1" type="highway.service" shape="218.49,1637.88 201.01,1638.02">
        <lane id="-1021859429#0_0" index="0" allow="pedestrian delivery bicycle" speed="5.56" length="20.21" shape="213.61,1639.52 207.38,1639.57"/>
    </edge>
    <edge id="-1021859431#0" from="cluster_9424618592_9424665416_9424691318" to="cluster_9424665414_9424691319" priority="1" type="highway.service" shape="223.02,1658.18 223.49,1652.85 223.85,1639.79">
        <lane id="-1021859431#0_0" index="0" allow="pedestrian delivery bicycle" speed="5.56" length="21.98" shape="221.83,1653.43 221.89,1652.76 221.94,1650.94"/>
    </edge>
    <edge id="-1021859434" from="cluster_9424618592_9424665416_9424691318" to="cluster_9424618593_9424618595" priority="1" type="highway.service" shape="223.02,1658.18 228.47,1658.31 237.09,1658.74">
        <lane id="-1021859434_0" index="0" allow="pedestrian delivery bicycle" speed="5.56" length="18.72" shape="228.21,1656.70 228.53,1656.71 229.20,1656.75"/>
    </edge>
    <edge id="-1021861254#1" from="cluster_9424618592_9424665416_9424691318" to="9424618591" priority="1" type="highway.service" shape="223.10,1664.41 223.31,1669.22 223.79,1680.28">
        <lane id="-1021861254#1_0" index="0" allow="pedestrian delivery bicycle" speed="5.56" length="20.33" shape="224.91,1669.08 224.97,1670.66"/>
    </edge>
    <edge id="-1021861257#1" from="cluster_9424665414_9424691319" to="cluster_9424618593_9424618595" priority="1" type="highway.service" shape="223.85,1639.79 237.09,1658.74">
        <lane id="-1021861257#1_0" index="0" allow="pedestrian delivery bicycle" speed="5.56" length="29.01" shape="231.57,1648.06 233.80,1651.24"/>
    </edge>
    <edge id="-1021861258" from="cluster_9424618593_9424618595" to="cluster_9424618592_9424665416_9424691318" priority="1" type="highway.service" shape="241.14,1664.39 229.96,1664.22 223.10,1664.41">
        <lane id="-1021861258_0" index="0" allow="pedestrian delivery bicycle" speed="5.56" length="19.42" shape="229.06,1665.84 227.98,1665.87"/>
    </edge>
    <edge id="-1022120950" from="8263158048" to="1866789039" priority="1" type="highway.service" shape="1337.03,800.88 1401.76,801.05 1403.55,990.35 1419.98,990.03 1434.66,989.79 1436.34,1078.79 1436.35,1080.83 1436.46,1094.47">
        <lane id="-1022120950_0" index="0" allow="pedestrian delivery bicycle" speed="5.56" length="389.85" shape="1337.03,799.28 1403.34,799.45 1405.13,988.72 1419.95,988.43 1436.23,988.16 1437.94,1078.76 1437.95,1080.81 1437.98,1084.91"/>
    </edge>
    <edge id="-1022256138#1" from="9428086863" to="9428086830" priority="1" type="highway.service" shape="600.03,794.67 600.28,802.12 600.51,809.11">
        <lane id="-1022256138#1_0" index="0" allow="pedestrian delivery bicycle" speed="5.56" length="14.45" shape="601.79,799.34 601.88,802.07 602.11,809.06"/>
    </edge>
    <edge id="-1022723109" from="9432312163" to="9432312160" priority="1" type="highway.service" shape="189.91,1207.86 202.96,1207.52 204.18,1206.49 214.40,1197.20 214.31,1192.02 213.84,1173.46">
        <lane id="-1022723109_0" index="0" allow="pedestrian delivery bicycle" speed="5.56" length="52.21" shape="192.97,1206.18 202.36,1205.93 203.12,1205.29 212.79,1196.50 212.71,1192.05 212.36,1178.22"/>
    </edge>
    <edge id="-1022810670" from="2504794158" to="4000848163" priority="11" type="highway.secondary" shape="978.85,202.37 978.51,183.95 975.85,74.28">
        <lane id="-1022810670_0" index="0" disallow="tram rail_urban rail rail_electric rail_fast ship" speed="27.78" length="128.13" shape="973.74,185.62 973.71,184.05 971.05,74.39"/>
        <lane id="-1022810670_1" index="1" disallow="tram rail_urban rail rail_electric rail_fast ship" speed="27.78" length="128.13" shape="976.94,185.56 976.91,183.98 974.25,74.32"/>
    </edge>
    <edge id="-1039494867#1" from="9572139444" to="9572139443" priority="1" type="highway.service" shape="2691.63,867.00 2679.43,867.44 2673.70,867.63">
        <lane id="-1039494867#1_0" index="0" allow="pedestrian delivery bicycle" speed="5.56" length="17.94" shape="2680.57,869.00 2679.49,869.04 2673.76,869.23"/>
    </edge>
    <edge id="-1044651622" from="9612224776" to="4805651419" priority="1" type="highway.service" shape="2215.51,1459.25 2215.75,1455.09 2217.04,1452.26 2218.95,1450.10 2222.12,1448.85 2226.09,1448.26 2245.91,1438.71 2248.17,1435.55">
        <lane id="-1044651622_0" index="0" allow="pedestrian delivery bicycle" speed="5.56" length="43.47" shape="2213.91,1459.16 2214.17,1454.70 2215.68,1451.38 2218.01,1448.75 2221.71,1447.30 2225.62,1446.72 2244.84,1437.44 2245.93,1435.93"/>
    </edge>
    <edge id="-1052490332#1" from="cluster_9672573882_9672573885" to="9672573881" priority="1" type="highway.service" shape="818.93,1652.48 830.09,1652.28 833.18,1652.23">
        <lane id="-1052490332#1_0" index="0" allow="pedestrian delivery bicycle" speed="5.56" length="15.29" shape="826.84,1650.74 830.06,1650.68 833.16,1650.63"/>
    </edge>
    <edge id="-1052490333#1" from="cluster_9672573882_9672573885" to="9672573884" priority="1" type="highway.service" shape="818.72,1644.24 829.90,1644.07 832.98,1644.02">
        <lane id="-1052490333#1_0" index="0" allow="pedestrian delivery bicycle" speed="5.56" length="15.22" shape="826.71,1642.52 829.87,1642.47 832.96,1642.42"/>
    </edge>
    <edge id="-1052490334#1" from="cluster_1243960712_9672573888_9672573902_9672573904" to="9672573887" priority="1" type="highway.service" shape="817.60,1601.56 828.86,1601.31 831.92,1601.25">
        <lane id="-1052490334#1_0" index="0" allow="pedestrian delivery bicycle" speed="5.56" length="14.38" shape="825.49,1599.78 828.83,1599.71 831.89,1599.65"/>
    </edge>
    <edge id="-1052490335#1" from="cluster_9672573891_9672573900" to="9672573890" priority="1" type="highway.service" shape="816.69,1559.64 827.85,1559.39 831.10,1559.32">
        <lane id="-1052490335#1_0" index="0" allow="pedestrian delivery bicycle" speed="5.56" length="15.67" shape="824.56,1557.86 827.82,1557.79 831.06,1557.72"/>
    </edge>
    <edge id="-1052490338" from="cluster_9672573891_9672573900" to="9672573899" priority="1" type="highway.service" shape="816.89,1568.92 803.37,1569.22">
        <lane id="-1052490338_0" index="0" allow="pedestrian delivery bicycle" speed="5.56" length="14.79" shape="809.02,1570.70 803.41,1570.82"/>
    </edge>
    <edge id="-1054351818#1" from="8225844645" to="876615335" priority="2" type="highway.living_street" shape="1378.89,928.20 1459.09,926.00 1482.99,925.61 1487.99,927.49 1491.11,929.18 1493.14,930.13 1502.83,934.73">
        <lane id="-1054351818#1_0" index="0" disallow="tram rail_urban rail rail_electric rail_fast ship" speed="2.78" length="125.99" shape="1385.04,926.43 1459.05,924.40 1483.27,924.00 1488.65,926.04 1491.84,927.75 1492.06,927.86"/>
    </edge>
    <edge id="-1062617043#1" from="9761863882" to="9761863880" priority="1" type="highway.service" shape="862.77,788.56 861.68,736.34 805.02,737.55 797.13,737.72">
        <lane id="-1062617043#1_0" index="0" allow="pedestrian delivery bicycle" speed="5.56" length="116.80" shape="861.07,783.89 860.12,737.97 805.06,739.15"/>
    </edge>
    <edge id="-1064040137" from="6978574901" to="cluster_49777843_6978574887_6978574889" priority="1" type="highway.service" shape="1235.19,1153.32 1234.72,1133.93 1234.51,1124.63 1234.51,1122.84 1234.67,1121.49 1235.03,1120.15 1235.64,1118.50 1236.79,1116.70 1238.37,1115.07 1239.54,1114.23 1241.18,1113.59 1243.31,1113.27 1252.92,1113.06">
        <lane id="-1064040137_0" index="0" allow="pedestrian delivery bicycle" speed="5.56" length="58.09" shape="1233.48,1148.62 1233.12,1133.97 1232.91,1124.66 1232.91,1122.74 1233.10,1121.19 1233.50,1119.67 1234.20,1117.78 1235.53,1115.71 1237.32,1113.85 1238.77,1112.82 1240.76,1112.03 1243.17,1111.67 1248.21,1111.56"/>
    </edge>
    <edge id="-1064040139" from="9772753868" to="9772753867" priority="1" type="highway.service">
        <lane id="-1064040139_0" index="0" allow="pedestrian delivery bicycle" speed="5.56" length="20.77" shape="2551.92,1556.30 2539.05,1556.59"/>
    </edge>
    <edge id="-1064541609#1" from="9776764951" to="9776764948" priority="1" type="highway.service" shape="405.61,1601.53 464.30,1600.36 463.55,1562.33 528.86,1561.05 538.42,1560.86">
        <lane id="-1064541609#1_0" index="0" allow="pedestrian delivery bicycle" speed="5.56" length="171.64" shape="405.58,1599.93 462.67,1598.79 461.91,1560.76 528.83,1559.45 532.07,1559.38"/>
    </edge>
    <edge id="-1064925525#1" from="9779920182" to="9779920181" priority="1" type="highway.service" shape="221.01,377.88 221.08,385.54 221.11,388.40 221.23,400.63">
        <lane id="-1064925525#1_0" index="0" allow="pedestrian delivery bicycle" speed="5.56" length="22.75" shape="222.65,382.60 222.68,385.53 222.71,388.38 222.83,400.62"/>
    </edge>
    <edge id="-1070434842#1" from="cluster_9823657550_9823657557" to="9823657549" priority="1" type="highway.service" shape="2275.45,825.41 2328.21,824.38 2339.71,824.15">
        <lane id="-1070434842#1_0" index="0" allow="pedestrian delivery bicycle" speed="5.56" length="65.63" shape="2280.13,823.72 2328.18,822.78 2333.37,822.68"/>
    </edge>
    <edge id="-1070434842#3" from="9823657553" to="cluster_9823657550_9823657557" priority="1" type="highway.service" shape="2246.76,811.30 2275.24,810.62 2275.34,817.69">
        <lane id="-1070434842#3_0" index="0" allow="pedestrian delivery bicycle" speed="5.56" length="39.42" shape="2246.72,809.70 2276.82,808.98 2276.87,813.21"/>
    </edge>
    <edge id="-1070434843" from="cluster_9823657550_9823657557" to="9823657556" priority="1" type="highway.service" shape="2275.45,825.41 2272.73,828.79">
        <lane id="-1070434843_0" index="0" allow="pedestrian delivery bicycle" speed="5.56" length="7.80" shape="2274.82,828.74 2273.97,829.79"/>
    </edge>
    <edge id="-1070434844" from="9823657558" to="cluster_9823657550_9823657557" priority="1" type="highway.service" shape="2269.29,817.88 2275.34,817.69">
        <lane id="-1070434844_0" index="0" allow="pedestrian delivery bicycle" speed="5.56" length="7.39" shape="2269.24,816.28 2270.64,816.24"/>
    </edge>
    <edge id="-108402216#0" from="5445932327" to="1243960690" priority="1" type="highway.service">
        <lane id="-108402216#0_0" index="0" allow="pedestrian delivery bicycle" speed="5.56" length="61.25" shape="279.59,1445.19 278.18,1391.80"/>
    </edge>
    <edge id="-108402216#1" from="1243960638" to="5445932327" priority="1" type="highway.service">
        <lane id="-108402216#1_0" index="0" allow="pedestrian delivery bicycle" speed="5.56" length="61.07" shape="280.87,1504.65 279.81,1454.59"/>
    </edge>
    <edge id="-108402217#0" from="5445789493" to="1243960707" priority="1" type="highway.service">
        <lane id="-108402217#0_0" index="0" allow="pedestrian delivery bicycle" speed="5.56" length="77.29" shape="737.84,1599.31 671.55,1600.87"/>
    </edge>
    <edge id="-108402217#1" from="cluster_1243960712_9672573888_9672573902_9672573904" to="5445789493" priority="1" type="highway.service" shape="817.46,1595.84 742.49,1597.60">
        <lane id="-108402217#1_0" index="0" allow="pedestrian delivery bicycle" speed="5.56" length="77.47" shape="809.58,1597.63 747.24,1599.09"/>
    </edge>
    <edge id="-120478418#2" from="8254268653" to="2504794158" priority="13" type="highway.trunk" shape="1233.13,196.89 1221.62,197.19 991.88,202.05 978.85,202.37">
        <lane id="-120478418#2_0" index="0" disallow="pedestrian bicycle tram rail_urban rail rail_electric rail_fast ship" speed="11.18" length="254.34" shape="1226.05,208.28 1221.88,208.39 992.12,213.24 989.61,213.31"/>
        <lane id="-120478418#2_1" index="1" disallow="pedestrian bicycle tram rail_urban rail rail_electric rail_fast ship" speed="11.18" length="254.34" shape="1225.96,205.08 1221.81,205.19 992.05,210.05 989.53,210.11"/>
        <lane id="-120478418#2_2" index="2" disallow="pedestrian bicycle tram rail_urban rail rail_electric rail_fast ship" speed="11.18" length="254.34" shape="1225.88,201.88 1221.73,201.99 991.98,206.85 989.45,206.91"/>
        <lane id="-120478418#2_3" index="3" disallow="pedestrian bicycle tram rail_urban rail rail_electric rail_fast ship" speed="11.18" length="254.34" shape="1225.80,198.68 1221.66,198.79 991.91,203.65 989.37,203.71"/>
        <param key="ref" value="US 50"/>
    </edge>
    <edge id="-120478419#1" from="1350845800" to="520072065" priority="13" type="highway.trunk" shape="1574.52,188.54 1615.88,187.79 1630.78,187.16">
        <lane id="-120478419#1_0" index="0" disallow="pedestrian bicycle tram rail_urban rail rail_electric rail_fast ship" speed="11.18" length="56.28" shape="1578.32,177.27 1615.54,176.59 1616.42,176.56"/>
        <lane id="-120478419#1_1" index="1" disallow="pedestrian bicycle tram rail_urban rail rail_electric rail_fast ship" speed="11.18" length="56.28" shape="1578.37,180.47 1615.64,179.79 1616.55,179.75"/>
        <lane id="-120478419#1_2" index="2" disallow="pedestrian bicycle tram rail_urban rail rail_electric rail_fast ship" speed="11.18" length="56.28" shape="1578.43,183.67 1615.74,182.99 1616.69,182.95"/>
        <lane id="-120478419#1_3" index="3" disallow="pedestrian bicycle tram rail_urban rail rail_electric rail_fast ship" speed="11.18" length="56.28" shape="1578.49,186.87 1615.84,186.19 1616.83,186.15"/>
        <param key="ref" value="US 50"/>
    </edge>
    <edge id="-120478694#2" from="520072065" to="4303519741" priority="13" type="highway.trunk" shape="1630.78,187.16 1630.66,171.25 1630.66,166.56 1629.72,97.93 1628.00,32.63 1627.64,14.09 1627.49,9.75 1627.16,0.96">
        <lane id="-120478694#2_0" index="0" disallow="pedestrian bicycle tram rail_urban rail rail_electric rail_fast ship" speed="27.78" length="186.24" shape="1622.66,170.24 1622.66,166.62 1621.72,98.09 1620.01,32.81 1619.64,14.28 1619.49,10.03 1619.17,1.25"/>
        <lane id="-120478694#2_1" index="1" disallow="pedestrian bicycle tram rail_urban rail rail_electric rail_fast ship" speed="27.78" length="186.24" shape="1625.86,170.21 1625.86,166.59 1624.92,98.02 1623.21,32.74 1622.84,14.20 1622.69,9.92 1622.36,1.14"/>
        <lane id="-120478694#2_2" index="2" disallow="pedestrian bicycle tram rail_urban rail rail_electric rail_fast ship" speed="27.78" length="186.24" shape="1629.06,170.19 1629.06,166.57 1628.12,97.96 1626.41,32.67 1626.04,14.13 1625.89,9.80 1625.56,1.02"/>
        <param key="ref" value="US 1"/>
    </edge>
    <edge id="-120478695#2" from="49762383" to="3669554878" priority="13" type="highway.trunk" shape="2691.44,854.24 2691.38,842.26 2689.46,759.10 2689.20,746.38">
        <lane id="-120478695#2_0" index="0" disallow="pedestrian bicycle tram rail_urban rail rail_electric rail_fast ship" speed="27.78" length="107.88" shape="2683.40,846.78 2683.38,842.37 2681.46,759.28 2681.41,756.99"/>
        <lane id="-120478695#2_1" index="1" disallow="pedestrian bicycle tram rail_urban rail rail_electric rail_fast ship" speed="27.78" length="107.88" shape="2686.60,846.76 2686.58,842.33 2684.66,759.21 2684.61,756.93"/>
        <lane id="-120478695#2_2" index="2" disallow="pedestrian bicycle tram rail_urban rail rail_electric rail_fast ship" speed="27.78" length="107.88" shape="2689.80,846.75 2689.78,842.28 2687.86,759.13 2687.81,756.87"/>
        <param key="ref" value="US 1;US 50;I 395 Alt"/>
    </edge>
    <edge id="-120478695#3" from="9572139444" to="49762383" priority="13" type="highway.trunk">
        <lane id="-120478695#3_0" index="0" disallow="pedestrian bicycle tram rail_urban rail rail_electric rail_fast ship" speed="27.78" length="12.77" shape="2683.57,862.62 2683.55,861.34"/>
        <lane id="-120478695#3_1" index="1" disallow="pedestrian bicycle tram rail_urban rail rail_electric rail_fast ship" speed="27.78" length="12.77" shape="2686.77,862.57 2686.75,861.30"/>
        <lane id="-120478695#3_2" index="2" disallow="pedestrian bicycle tram rail_urban rail rail_electric rail_fast ship" speed="27.78" length="12.77" shape="2689.97,862.53 2689.95,861.25"/>
        <param key="ref" value="US 1;US 50;I 395 Alt"/>
    </edge>
    <edge id="-120478695#4" from="2790488427" to="9572139444" priority="13" type="highway.trunk">
        <lane id="-120478695#4_0" index="0" disallow="pedestrian bicycle tram rail_urban rail rail_electric rail_fast ship" speed="27.78" length="27.65" shape="2684.28,890.20 2683.77,872.00"/>
        <lane id="-120478695#4_1" index="1" disallow="pedestrian bicycle tram rail_urban rail rail_electric rail_fast ship" speed="27.78" length="27.65" shape="2687.48,890.11 2686.97,871.91"/>
        <lane id="-120478695#4_2" index="2" disallow="pedestrian bicycle tram rail_urban rail rail_electric rail_fast ship" speed="27.78" length="27.65" shape="2690.68,890.02 2690.17,871.82"/>
        <param key="ref" value="US 1;US 50;I 395 Alt"/>
    </edge>
    <edge id="-121782030#0" from="3705029882" to="1362307949" priority="1" type="highway.service" shape="603.20,1616.02 604.62,1615.98 665.56,1615.15">
        <lane id="-121782030#0_0" index="0" allow="pedestrian delivery bicycle" speed="5.56" length="62.37" shape="607.88,1614.34 659.21,1613.63"/>
    </edge>
    <edge id="-121782030#1" from="1362307943" to="3705029882" priority="1" type="highway.service">
        <lane id="-121782030#1_0" index="0" allow="pedestrian delivery bicycle" speed="5.56" length="63.18" shape="546.30,1616.21 598.38,1614.57"/>
    </edge>
    <edge id="-121782031" from="5054301682" to="1362307956" priority="1" type="highway.service">
        <lane id="-121782031_0" index="0" allow="pedestrian delivery bicycle" speed="5.56" length="57.63" shape="1322.53,1592.96 1286.06,1594.70"/>
    </edge>
    <edge id="-121980352" from="49842924" to="641116216" priority="12" type="highway.primary">
        <lane id="-121980352_0" index="0" disallow="tram rail_urban rail rail_electric rail_fast ship" speed="27.78" length="12.40" shape="1267.33,1362.46 1267.33,1362.66"/>
        <lane id="-121980352_1" index="1" disallow="tram rail_urban rail rail_electric rail_fast ship" speed="27.78" length="12.40" shape="1264.13,1362.50 1264.13,1362.70"/>
        <lane id="-121980352_2" index="2" disallow="tram rail_urban rail rail_electric rail_fast ship" speed="27.78" length="12.40" shape="1260.93,1362.54 1260.93,1362.74"/>
    </edge>
    <edge id="-125568108#1" from="4772585558" to="49734104" priority="13" type="highway.trunk" shape="2088.66,1571.61 2087.68,1525.92 2087.53,1517.52">
        <lane id="-125568108#1_0" index="0" disallow="pedestrian bicycle tram rail_urban rail rail_electric rail_fast ship" speed="27.78" length="54.10" shape="2086.96,1566.94 2086.08,1525.96 2086.06,1524.81"/>
        <param key="ref" value="US 29"/>
    </edge>
    <edge id="-125568108#2" from="5446746094" to="4772585558" priority="13" type="highway.trunk">
        <lane id="-125568108#2_0" index="0" disallow="pedestrian bicycle tram rail_urban rail rail_electric rail_fast ship" speed="27.78" length="69.12" shape="2088.43,1636.02 2087.16,1576.34"/>
        <param key="ref" value="US 29"/>
    </edge>
    <edge id="-125568108#4" from="3012829798" to="5446746094" priority="13" type="highway.trunk" shape="2091.06,1681.78 2090.91,1672.69 2090.13,1640.71">
        <lane id="-125568108#4_0" index="0" disallow="pedestrian bicycle tram rail_urban rail rail_electric rail_fast ship" speed="27.78" length="41.09" shape="2089.34,1674.63 2089.31,1672.72 2088.65,1645.41"/>
        <param key="ref" value="US 29"/>
    </edge>
    <edge id="-125568108#9" from="3995242874" to="3012829798" priority="13" type="highway.trunk" shape="2097.44,1966.57 2097.37,1960.20 2096.66,1935.76 2096.07,1903.18 2095.62,1886.42 2095.18,1867.67 2095.20,1858.71 2094.99,1850.21 2092.13,1733.45 2091.05,1692.93 2091.06,1681.78">
        <lane id="-125568108#9_0" index="0" disallow="pedestrian bicycle tram rail_urban rail rail_electric rail_fast ship" speed="27.78" length="284.86" shape="2095.84,1966.58 2095.77,1960.24 2095.06,1935.80 2094.47,1903.22 2094.02,1886.46 2093.58,1867.69 2093.60,1858.73 2093.39,1850.25 2090.54,1733.49 2089.45,1692.95 2089.46,1689.07"/>
        <param key="ref" value="US 29"/>