<?xml version="1.0"?>

<routes> <!-- The opening tag -->

   <!-- Vehicle types -->
   <vType id="passenger" length="5.0" width="2.0" maxSpeed="70.0" accel="2.6" decel="4.5" sigma="0.5"/>

   <!-- Routes + associated vehicles & flows -->
   <route id="trip-0" color="Magenta" edges="296355738#1 -468469890#3 -468469890#1 155011691#0 6056532#0 45838762#1 971624710 6062876#0 509325421 50799689#0 -321444900 -648026207#1 -333922462#1 -50260020#7 -50260020#5 70948801#3 439875857#0"/>
   <vehicle id="vehicle-0" type="passenger" color="Yellow" depart="0.0" route="trip-0"/>

   <route id="trip-1" color="Magenta" edges="436136930#4 130889760#0 6056366#3 130285119#0 130285119#2 130285119#3 -923370378#9 -923370378#7 -923370378#6 -923370378#4 -923370378#2 -923370378#0 -6055551#1 120478418#0 423615732#0 998360408#0 -998360408#0"/>
   <vehicle id="vehicle-1" type="passenger" color="Yellow" depart="0.01" route="trip-1"/>

   <route id="trip-2" color="Magenta" edges="50511365#3 50511365#4 50511365#6 -130788227#3 -130788227#1 -421037430#2 6056532#0 45838762#1 971624710 6062876#0 509325421 50799689#0 321444902#0 321444902#3 354079209#0 987879163#0 508158268 987879162#0 421258870#0 397303090#0 397303092#0 130802371#0 -130802371#2"/>
   <vehicle id="vehicle-2" type="passenger" color="Yellow" depart="0.02" route="trip-2"/>

   <route id="trip-3" color="Magenta" edges="130772954 -130772954 -126303361#7 -126303361#4 -126303361#1 108060074#0 864614823#0 864614823#2"/>
   <vehicle id="vehicle-3" type="passenger" color="Yellow" depart="0.03" route="trip-3"/>

   <route id="trip-4" color="Magenta" edges="-468433799#1 -468433799#0 -468433800 468469927#0 468469927#2 460536376#0 468469923#0 468469931#0 468469935#0 468469935#2 468469943#0 -479469615#3 -520463951#3 -520463951#1"/>
   <vehicle id="vehicle-4" type="passenger" color="Yellow" depart="0.04" route="trip-4"/>

   <route id="trip-5" color="Magenta" edges="-864614823#3 -864614823#1 -298832240 126303356#0 476103811 476103812 49999718#1 -468433795#1 -203119342#1 -397327121#1 -468433796 -397327124#1 298848145#0 130285121#0 508158271 508158272#0 50260020#0 50260020#2 50260020#4"/>
   <vehicle id="vehicle-5" type="passenger" color="Yellow" depart="0.05" route="trip-5"/>

   <route id="trip-6" color="Magenta" edges="-469165494 469165494 130788158#0 130802362#0 130802362#1 466359340#0 466359340#1 535462248 421075190#0 421075190#1 421075190#2 421075190#3 345633935#0 50799230#0 50799230#2 50799230#4 50799230#6 50799230#7 50524889#15"/>
   <vehicle id="vehicle-6" type="passenger" color="Yellow" depart="0.06" route="trip-6"/>

   <route id="trip-7" color="Magenta" edges="466349886#2 466349886#3 130802362#0 130802362#1 466359340#0 466359340#1 535462248 476103806 476103805 509325914 -509325914 476103803"/>
   <vehicle id="vehicle-7" type="passenger" color="Yellow" depart="0.07" route="trip-7"/>

   <route id="trip-8" color="Magenta" edges="45838765#0 -203025090#3 -203025090#1 297368443#0 146537579#0 130285135#0 397319284#0 397319281#0 421734517#0 298814317#0 -347003330#3 347003328#0 -397303092#2 -397303090#1 -175873836#2 130802372#0 130802372#3 589551073#0 1051018092#0 345633934 1051018093#0 589539535#0 589533502#0 126303366#0 126303365 6058797"/>
   <vehicle id="vehicle-8" type="passenger" color="Yellow" depart="0.08" route="trip-8"/>

   <route id="trip-9" color="Magenta" edges="466349884 1049230589 1049226223#0 1049226223#1 696737929#0 696737929#1 696737929#2 130802360#0 130802360#1 469159255 353283535#0 353283535#2 469159257#0 469159256#0 469159256#3 469159259 469159258#0 469159258#1 469159258#2 468469919#0 468469927#0 468469927#2 460536376#0 468469923#0 468469931#0 468469935#0 468469935#2 468469943#0 468469939#0 468469946#0 200019461#0 435424520#0 -420781368#1 -920893151#1 -6057581#6 -6057581#5 -6057581#4 -6057581#3 -6057581#2 -6057581#1 -6056532#2 50710195#0 50710195#2 297296749#0 -466352083#1 50511365#2"/>
   <vehicle id="vehicle-9" type="passenger" color="Yellow" depart="0.09" route="trip-9"/>

   <route id="trip-10" color="Magenta" edges="321444898 -321444898 321444902#0 321444902#3 354079209#0 987879163#0 508158268 987879162#0 421258870#0 1054351817 305660797#0 -305660797#0"/>
   <vehicle id="vehicle-10" type="passenger" color="Yellow" depart="0.1" route="trip-10"/>

   <route id="trip-11" color="Magenta" edges="985426725#0 985426724 468436769#0 6056069#0 589533583#0 589539536#0 589539536#2 589539536#3 589539536#4 590581668#0 590581668#2 1049842802#0 1049842803 1049842804 589539534#0 1049287312#0 1049287312#2 126303354#0 126303354#2 345709542#0 1048676964#0 298848145#0 130285121#0 508158271 508158272#0 130889749#0 130889749#2 397316524#0 -397316522 347003330#4 589533563#0 589539518#0 589539518#2 297380210#0 297380210#2 -297380214#6 -297380214#2 -397329572#1 -397329570 -397329575#1 -130908059#2 -131052512#5 -131052512#3 131052512#3"/>
   <vehicle id="vehicle-11" type="passenger" color="Yellow" depart="0.11" route="trip-11"/>

   <route id="trip-12" color="Magenta" edges="397354452#0 6056366#0 6056366#3 130889756#0 130889756#3 130889756#5 130889756#7 130889757#0 698748857#0 589539536#0 589539536#2 589539536#3 589539536#4 590581668#0 590581668#2 1049842802#0 1049842803 1049842804 589539534#0 1049287312#0 1049287312#2 126303354#0 126303354#2 345709542#0 1048676964#0 298848145#0 1047793071 298814315#0 508158270#0 468433793#0 354079210 468433792#0 -756406654#1 -347003227 -468433791#1 -521200399 -352412039#1"/>
   <vehicle id="vehicle-12" type="passenger" color="Yellow" depart="0.12" route="trip-12"/>

   <route id="trip-13" color="Magenta" edges="468433799#0 -468433799#0 -468433800 468469927#0 468469927#2 460536376#0 468469923#0 468469931#0 468469935#0 468469935#2 468469943#0 468469939#0 468469946#0 200019461#0 435424520#0 -420781368#1 -920893151#1 -6057581#6 -6057581#5 -6057581#4 -6057581#3 -6057581#2 -6057581#1 -6056532#2 -155011691#1"/>
   <vehicle id="vehicle-13" type="passenger" color="Yellow" depart="0.13" route="trip-13"/>

   <route id="trip-14" color="Magenta" edges="-923370378#9 923370378#8 923370378#10 468434115#0 537114618#0 537114618#2 537114618#3 537114618#5 537114618#6 537114618#9 469165490#0 469165490#2 590581668#0 590581668#2 1049842802#0 1049842803 1049842804 589539534#0 1049287312#0 1049287312#2 126303354#0 126303354#2 345709542#0 1048676964#0 298848145#0 1047793071 298814315#0 508158270#0 421268132#0 439875857#0 590598870#0 321444898 321444899#0 130788155#0 -6062201#2"/>
   <vehicle id="vehicle-14" type="passenger" color="Yellow" depart="0.14" route="trip-14"/>

   <route id="trip-15" color="Magenta" edges="1060936416#0 1060936417 -468433800 -468433803 -468433804 -298832254#2 -476103809#1 -520532363 -6060903#4 -6060903#2 -6060903#1 589539535#0 589533502#0 469165486#0 469165487 469165488#0 -469165489#1 -469165490#1 469154540#0"/>
   <vehicle id="vehicle-15" type="passenger" color="Yellow" depart="0.15" route="trip-15"/>

   <route id="trip-16" color="Magenta" edges="397329580#0 397329578#0 131076063#0 589539520#0 -333922526#3 -333922526#1 -50260020#7 -50260020#5 -50260020#3 -50260020#1 130927087#0 468433793#0 354079210 468433792#0 -756406654#1 -347003227 -468433791#1 -521200399 -352412039#1 50429905 924793627#0-AddedOnRampEdge 924793627#0 126303361#0 126303361#3 126303361#5 130772954 -130772954"/>
   <vehicle id="vehicle-16" type="passenger" color="Yellow" depart="0.16" route="trip-16"/>

   <route id="trip-17" color="Magenta" edges="130908283#0 130908283#1 130908283#2 130908283#3 6058793#0 1049842802#0 1049842803 1049842804 589539534#0 1049287312#0 1049287312#2 126303354#0 126303354#2 345709542#0 1048676964#0 298848145#0 130285121#0 508158271 508158272#0 130889749#0 130889749#2 397316524#0 -397316522 347003330#4 589533563#0 589539518#0 589539518#2 297380210#0 297380210#2 -297380214#6 -297380214#2 -397329572#1 -397329570 -397329575#1 -130908059#2 -6057544#5 -6057544#2 6057544#2"/>
   <vehicle id="vehicle-17" type="passenger" color="Yellow" depart="0.17" route="trip-17"/>

   <route id="trip-18" color="Magenta" edges="-435424522#3 435424522#2 435424522#4 479469615#0 535546520#0 535546520#3 347003226 -352412039#1 -298815729#1 -476103813#1 -352412083 -126303356#1 -298832261#2 -298832254#2 -476103809#1 354202945#0 352411913#0 130908283#0 130908283#1 130908283#2"/>
   <vehicle id="vehicle-18" type="passenger" color="Yellow" depart="0.18" route="trip-18"/>

   <route id="trip-19" color="Magenta" edges="45838764#0 24238018#0 24238018#2 542269372#0 589533564#0 589533563#0 589539518#0 589539518#2 297380210#0 297380210#2 -297380214#6 -297380214#2 -397329572#1 -397329570 -397329575#1 -130908059#2"/>
   <vehicle id="vehicle-19" type="passenger" color="Yellow" depart="0.19" route="trip-19"/>

</routes> <!-- The closing tag -->
