<?xml version="1.0" encoding="UTF-8"?>
<!-- generated on 2022-10-26 03:15:43.079163 by $Id$ UNKNOWN
  options: -n /Users/nafiulhassan/veins-5.1/examples/veins/input/washingtondc/30/washingtondc.net.xml -s 17 -e 120 -o /Users/nafiulhassan/veins-5.1/examples/veins/input/washingtondc/seed-17/120/washingtondc.trips.xml
-->
<routes xmlns:xsi="http://www.w3.org/2001/XMLSchema-instance" xsi:noNamespaceSchemaLocation="http://sumo.dlr.de/xsd/routes_file.xsd">
    <trip id="0" depart="0.00" from="345709542#0" to="520468342"/>
    <trip id="1" depart="1.00" from="756406654#0" to="-920636360#1"/>
    <trip id="2" depart="2.00" from="50524889#3" to="469165492#2"/>
    <trip id="3" depart="3.00" from="468434122#2" to="-397315035#2"/>
    <trip id="4" depart="4.00" from="-130908283#0" to="130889702#3"/>
    <trip id="5" depart="5.00" from="50429917" to="-590581593#5"/>
    <trip id="6" depart="6.00" from="305660797#2" to="1049226224#0"/>
    <trip id="7" depart="7.00" from="583705855" to="695842775"/>
    <trip id="8" depart="8.00" from="130908289#3" to="998338690#6"/>
    <trip id="9" depart="9.00" from="-296786737#1" to="520537743#0"/>
    <trip id="10" depart="10.00" from="589551086#0" to="-436136927#6"/>
    <trip id="11" depart="11.00" from="476103811" to="397316524#0"/>
    <trip id="12" depart="12.00" from="698748856#0" to="-50799230#1"/>
    <trip id="13" depart="13.00" from="354202945#0" to="590581593#0"/>
    <trip id="14" depart="14.00" from="466349884" to="1033847613#0"/>
    <trip id="15" depart="15.00" from="-305368640#1" to="6063421#1"/>
    <trip id="16" depart="16.00" from="297380211#0" to="988487225#0"/>
    <trip id="17" depart="17.00" from="-421077027" to="520537743#0"/>
    <trip id="18" depart="18.00" from="520537749" to="6057581#3"/>
    <trip id="19" depart="19.00" from="-130788195" to="130788207#6"/>
    <trip id="20" depart="20.00" from="-26572919#2" to="50429920"/>
    <trip id="21" depart="21.00" from="130285138#0" to="70948803#0"/>
    <trip id="22" depart="22.00" from="130802372#0" to="50524890#8"/>
    <trip id="23" depart="23.00" from="589539522#0" to="-575569267#16"/>
    <trip id="24" depart="24.00" from="397318411#0" to="70948801#0"/>
    <trip id="25" depart="25.00" from="347003328#0" to="130772931#1"/>
    <trip id="26" depart="26.00" from="-6057581#6" to="508158271"/>
    <trip id="27" depart="27.00" from="-47916246#3" to="421076402"/>
    <trip id="28" depart="28.00" from="397317311#0" to="397316171"/>
    <trip id="29" depart="29.00" from="-397327937#1" to="468433798#0"/>
    <trip id="30" depart="30.00" from="6057544#2" to="1049235346#0"/>
    <trip id="31" depart="31.00" from="120478695#3" to="6056069#0"/>
    <trip id="32" depart="32.00" from="397327936#0" to="-6059056#1"/>
    <trip id="33" depart="33.00" from="-126303361#4" to="50429922"/>
    <trip id="34" depart="34.00" from="130285088#0" to="297273916#2"/>
    <trip id="35" depart="35.00" from="-6060903#1" to="439875858#4"/>
    <trip id="36" depart="36.00" from="49999718#0" to="1033847614#0"/>
    <trip id="37" depart="37.00" from="-297382770#5" to="983121554#7"/>
    <trip id="38" depart="38.00" from="6056366#0" to="-130802359#1"/>
    <trip id="39" depart="39.00" from="397319283" to="468469943#0"/>
    <trip id="40" depart="40.00" from="130908289#7" to="49999716#3"/>
    <trip id="41" depart="41.00" from="74100353#0" to="397329580#0"/>
    <trip id="42" depart="42.00" from="130889758#4" to="-47916247#1"/>
    <trip id="43" depart="43.00" from="-590581593#3" to="-436136927#5"/>
    <trip id="44" depart="44.00" from="-397315035#1" to="-50799230#8"/>
    <trip id="45" depart="45.00" from="583698431#0" to="352412039#0"/>
    <trip id="46" depart="46.00" from="520532349#0" to="6057581#3"/>
    <trip id="47" depart="47.00" from="520537746" to="-24238018#5"/>
    <trip id="48" depart="48.00" from="6059056#0" to="-345633936#1"/>
    <trip id="49" depart="49.00" from="50710195#2" to="575569267#0"/>
    <trip id="50" depart="50.00" from="468434113#1" to="130908283#3"/>
    <trip id="51" depart="51.00" from="-297382770#5" to="-308739814#1"/>
    <trip id="52" depart="52.00" from="45839048#0" to="-575569267#8"/>
    <trip id="53" depart="53.00" from="352412100" to="-6057544#2"/>
    <trip id="54" depart="54.00" from="-468433793#1" to="-923370378#9"/>
    <trip id="55" depart="55.00" from="49887645#0" to="297401518#0"/>
    <trip id="56" depart="56.00" from="130889758#6" to="297401518#0"/>
    <trip id="57" depart="57.00" from="397317307#0" to="321477132#0"/>
    <trip id="58" depart="58.00" from="24238018#0" to="86472738#0"/>
    <trip id="59" depart="59.00" from="50429925" to="-521221938"/>
    <trip id="60" depart="60.00" from="1049842804" to="-469165492#1"/>
    <trip id="61" depart="61.00" from="130788192#0" to="-130908283#4"/>
    <trip id="62" depart="62.00" from="50429908" to="397319278#0"/>
    <trip id="63" depart="63.00" from="131463018#0" to="6053702#2"/>
    <trip id="64" depart="64.00" from="120478419#0" to="397324964#0"/>
    <trip id="65" depart="65.00" from="6060903#2" to="397316195#0"/>
    <trip id="66" depart="66.00" from="436136927#0" to="130788192#0"/>
    <trip id="67" depart="67.00" from="998338690#6" to="50429924"/>
    <trip id="68" depart="68.00" from="1026906900" to="130285133#0"/>
    <trip id="69" depart="69.00" from="409551583" to="323742931"/>
    <trip id="70" depart="70.00" from="347003226" to="-476103809#1"/>
    <trip id="71" depart="71.00" from="397327932#0" to="469165492#2"/>
    <trip id="72" depart="72.00" from="50524889#15" to="237743944#2"/>
    <trip id="73" depart="73.00" from="24238018#0" to="29961183#2"/>
    <trip id="74" depart="74.00" from="353283535#2" to="297296762#5"/>
    <trip id="75" depart="75.00" from="-126303366#1" to="-6057421#3"/>
    <trip id="76" depart="76.00" from="983121554#9" to="535546520#0"/>
    <trip id="77" depart="77.00" from="297296749#0" to="50429920"/>
    <trip id="78" depart="78.00" from="-50799230#5" to="-6057581#2"/>
    <trip id="79" depart="79.00" from="333922766#2" to="469165485#0"/>
    <trip id="80" depart="80.00" from="-130908283#1" to="297295058#0"/>
    <trip id="81" depart="81.00" from="6055749#1" to="434444693#0"/>
    <trip id="82" depart="82.00" from="988196201#0" to="-352412039#1"/>
    <trip id="83" depart="83.00" from="6056363#2" to="543712321#0"/>
    <trip id="84" depart="84.00" from="-130908282" to="352411913#0"/>
    <trip id="85" depart="85.00" from="50511365#1" to="-520468342"/>
    <trip id="86" depart="86.00" from="468433794" to="583705855"/>
    <trip id="87" depart="87.00" from="509649677" to="131463018#0"/>
    <trip id="88" depart="88.00" from="-296365351#4" to="352412100"/>
    <trip id="89" depart="89.00" from="-469165492#2" to="352412093#0"/>
    <trip id="90" depart="90.00" from="-6059056#1" to="126303361#0"/>
    <trip id="91" depart="91.00" from="397303092#0" to="521198982"/>
    <trip id="92" depart="92.00" from="924793627#0-AddedOnRampEdge" to="130908289#3"/>
    <trip id="93" depart="93.00" from="-125568108#9" to="50429917"/>
    <trip id="94" depart="94.00" from="125568108#2" to="50429929"/>
    <trip id="95" depart="95.00" from="542269372#0" to="-131052512#3"/>
    <trip id="96" depart="96.00" from="50008439" to="-648026207#1"/>
    <trip id="97" depart="97.00" from="1051205229#1" to="120478419#0"/>
    <trip id="98" depart="98.00" from="354079210" to="-589533563#2"/>
    <trip id="99" depart="99.00" from="298832261#0" to="-6063421#3"/>
    <trip id="100" depart="100.00" from="-397327121#1" to="-589905511#3"/>
    <trip id="101" depart="101.00" from="468469943#0" to="1033847614#3"/>
    <trip id="102" depart="102.00" from="-50260020#1" to="130788158#0"/>
    <trip id="103" depart="103.00" from="-509325914" to="983121553#3"/>
    <trip id="104" depart="104.00" from="509326253#0" to="-436136927#8"/>
    <trip id="105" depart="105.00" from="-983121553#1" to="202992519#0"/>
    <trip id="106" depart="106.00" from="347003330#0" to="130889749#0"/>
    <trip id="107" depart="107.00" from="347003226" to="50511237#0"/>
    <trip id="108" depart="108.00" from="-438958617#4" to="397317304"/>
    <trip id="109" depart="109.00" from="-468433796" to="347003330#0"/>
    <trip id="110" depart="110.00" from="1049842802#0" to="516085384#0"/>
    <trip id="111" depart="111.00" from="590581593#4" to="698748857#0"/>
    <trip id="112" depart="112.00" from="130908292#0" to="435424521#0"/>
    <trip id="113" depart="113.00" from="-468433800" to="476103812"/>
    <trip id="114" depart="114.00" from="50799230#7" to="131448559#0"/>
    <trip id="115" depart="115.00" from="1051205229#1" to="50429929"/>
    <trip id="116" depart="116.00" from="50429923" to="509649677"/>
    <trip id="117" depart="117.00" from="-923370378#11" to="-589533512#3"/>
    <trip id="118" depart="118.00" from="-590581593#1" to="-476103805"/>
    <trip id="119" depart="119.00" from="-125568108#4" to="-397321700#2"/>
</routes>
