<?xml version="1.0" encoding="UTF-8"?>

<!-- generated on 2022-10-26 03:08:35 by Eclipse SUMO duarouter Version 1.10.0
	<routes>

    <input>
        <net-file value="/Users/nafiulhassan/veins-5.1/examples/veins/input/washingtondc/20/washingtondc.net.xml"/>
        <route-files value="/Users/nafiulhassan/veins-5.1/examples/veins/input/washingtondc/seed-25/20/washingtondc.trips.xml"/>
    </input>

    <output>
        <output-file value="/Users/nafiulhassan/veins-5.1/examples/veins/input/washingtondc/seed-25/20/washingtondc.rou.xml"/>
        <alternatives-output value="/Users/nafiulhassan/veins-5.1/examples/veins/input/washingtondc/seed-25/20/washingtondc.rou.alt.xml"/>
    </output>

    <report>
        <ignore-errors value="true"/>
    </report>

</configuration>
-->

	<routes>
	<vehicle id="0" depart="0.00">
        <route edges="130889684#0 509326252#0 296971737#0 -130907982#1 -6053702#4 -6053702#2 -6053702#1 469151751 423602319#0 6059056#0"/>
    </vehicle>
	<vehicle id="1" depart="0.00">
        <route edges="583698432 520537744 520537746 583705854 535520845#0 535520845#1 323742932 -126303366#1 469165486#0 469165487 469165488#0 590581668#0 590581668#2 1049842802#0 1049842803 1049842804 589539534#0 1049287312#0 1049287312#2 126303354#0 126303354#2 345709542#0 1048676964#0 -347003327#2 -397316204#2 -509466050#2"/>
    </vehicle>
	<vehicle id="2" depart="0.00">
        <route edges="589539536#3 589539536#4 590581668#0 590581668#2 1049842802#0 1049842803 1049842804 589539534#0 1049287312#0 1049287312#2 126303354#0 126303354#2 345709542#0 1048676964#0 298848145#0 130285121#0 508158271 508158272#0 130889749#0 130889749#2 397316524#0 -397316522 -298814317#2 468433794 397319278#0 298814316 454817812"/>
    </vehicle>
	<vehicle id="3" depart="0.00">
        <route edges="-202992522#3 202992522#2 202992524#0 202992524#3 202992524#5 -252140542#2 509325421 468450542 130285122#0 126303355#0 347003228#0 347003229#0 347003229#2 589551073#0 1051018092#0 345633934 1051018093#0 589539535#0 589533502#0 469165486#0 469165487 469165488#0 -469165489#1 -469165490#1 -537114618#10 -537114618#8 -537114618#5 -537114618#4 -537114618#2 6062881#0 985067151 130285133#0-AddedOnRampEdge 130285133#0 6056363#0 6056363#2 6056363#3 130889760#0 131463018#0 509326252#0 50431292#0 696806634#0"/>
    </vehicle>
	<vehicle id="4" depart="0.00">
        <route edges="-6054255#5 6054255#3 6054255#6 6054255#7 513235538#0 297294791#0 297294792#0 589905511#0 120478695#0 120478695#3 120478695#4 120478695#5 468441885#0 468441885#2 202992519#0 -6057595#2 29961175#0 155011691#0 6056532#0 -47916249#2 -998338690#9"/>
    </vehicle>
	<vehicle id="5" depart="0.00">
        <route edges="146537575#0 -333922782#1 -333922765#2 589539518#0 589539518#2 297380210#0 297380210#2 -297380214#6 -297380214#2 -397329572#1 -397329570 -397329575#1 397329575#0"/>
    </vehicle>
	<vehicle id="6" depart="0.00">
        <route edges="-397321705#1 -589551092#1 -589551092#0 146537587#0 397324962 297368443#0 146537579#0 130285135#0 397319284#0 397319281#0 421734517#0 298814317#0 397316523#0 -397316524#1 -130889749#2 -130889749#1 130927087#0 468433793#0 354079210 468433792#0 -756406654#1 -347003227 -468433791#1 -521200399 -347003226 -535546520#4 -535546520#1 468469939#0 468469946#0"/>
    </vehicle>
	<vehicle id="8" depart="0.00">
        <route edges="510723128#1 510723128#2 45838764#0 24238018#0 24238018#2 397319281#0 421734517#0 298814317#0 -347003330#3 347003328#0 -397303092#2 -397303090#1 -175873836#2 130802372#0 130802372#3 589551073#0 1051018092#0 345633934 1051018093#0 589539535#0 589533502#0 469165486#0 469165487 469165488#0 -469165489#1 -469165490#1 -537114618#10 543712321#0 1033847612#0 436136930#0"/>
    </vehicle>
	<vehicle id="9" depart="0.00">
        <route edges="535780677#0 298825115#1 397319283 421734517#0 298814317#0 397316523#0 -397316524#1 -130889749#2 -130889749#1 130927087#0 421268132#0 439875857#0 590598870#0 509326776#0 650605162 6062204 988196201#0 29961175#0 468469890#0 468469890#2 -296355738#2 -296355738#0 -468469887 -468469894#1"/>
    </vehicle>
	<vehicle id="10" depart="0.00">
        <route edges="130772943#2 509326253#0 687108617#0 435106239#0 469154542 6057417#0 6056366#0 6056366#3 130889756#0 130889756#3 130889756#5 130889756#7 130889757#0 698748857#0 589539536#0 589539536#2 589539536#3 589539536#4 590581668#0 590581668#2 1049842802#0 1049842803 1049842804 589539534#0 1049287312#0 1049287312#2 126303354#0 126303354#2 345709542#0 1048676964#0 298848145#0 130285121#0 508158271 508158272#0 130889749#0 130889749#2 397316524#0 -397316522 -298814317#2 468433794 397319278#0 298814316 454817812 146537575#0 397319276 297456132#0 397324964#0 397324962 146537578#0 -297294789#2 297294789#0"/>
    </vehicle>
	<vehicle id="11" depart="0.00">
        <route edges="-353283601 466349883 583705855 469165475 130802360#0 130802360#1 469159255 353283534#0 353283534#1 323742931 126303364 323742932 -126303366#1 469165486#0 469165487 469165488#0 -469165489#1 -469165490#1 -537114618#10 -537114618#8 -537114618#5 -537114618#4 -537114618#2 -537114618#1 -468434115#1 -923370378#11 923370378#10"/>
    </vehicle>
	<vehicle id="12" depart="0.00">
        <route edges="45838768#0 146537587#0 397324962 297368443#0 146537579#0 130285135#0 397319284#0 397319281#0 421734517#0 298814317#0 -347003330#3 397316186#0 397316195#0 397316204#0 347003327#0 397327124#0 468433796 397327121#0 203119342#0 468433795#0 723610179 -476103813#1 -352412083 -126303356#1 -298832261#2 -298832254#2 -476103809#1 354202945#0 352411913#0 -352411913#1"/>
    </vehicle>
	<vehicle id="13" depart="0.00">
        <route edges="397329575#0 397329570 397329572#0 -397329572#1 -397329570 -397329575#1 -589905511#3 -297294792#2 131052297#0"/>
    </vehicle>
	<vehicle id="14" depart="0.00">
        <route edges="-476103806 476103806 476103801 321477125#6 520537743#0 520537743#1 354436361#0 354436361#1 354436361#2 583698434 583698432 520537744 520537746 583705854 535520845#0 535520845#1 535520845#2 352412093#0 -438964977 -466359338#3 -466359338#1"/>
    </vehicle>
	<vehicle id="15" depart="0.00">
        <route edges="297273914#0 50513886#0 50513886#1 297273916#0 297273916#2 297285722#0 297294784#0 513235538#0 297294791#0 297294792#0 589905511#0 120478695#0 -514191883#2 297380211#4 297380211#7 -297380211#8"/>
    </vehicle>
	<vehicle id="16" depart="0.00">
        <route edges="397319281#0 421734517#0 298814317#0 -347003330#3 347003328#0 -397303092#2 -397303090#1 -175873836#2 130802372#0 130802372#3 589551073#0 1051018092#0 345633934 1051018093#0 589539535#0 589533502#0 468434122#0 468434122#2 695842775 469157093 469157092 1048252755#0 589533511 520537739 -421076402 50429928 509325916 476103804 476103801 321477125#6"/>
    </vehicle>
	<vehicle id="17" depart="0.00">
        <route edges="-397327933 -397327938 -397327939#1 26572919#3 297380214#3 -297380210#3 -297380210#1 -589539518#3 -589539518#1 -589533563#2 -347003330#6 -347003330#3 347003328#0 -397303092#2 -397303090#1 -175873836#2 130802372#0 130802372#3 589551073#0 1051018092#0 345633934 1051018093#0 589539535#0 589533502#0 469165486#0 469165487 469165488#0 -469165489#1 -469165490#1 469154540#0 26707840#0 698748857#0 589539536#0 589539536#2 589539536#3 589539536#4"/>
    </vehicle>
	<vehicle id="18" depart="0.00">
        <route edges="-202992520#7 -202992520#6 -202992520#4 -202992520#2 -6057595#2 -988196201#2 -6062204 6062876#0 509325421 468450542 130285122#0 126303355#0 347003228#0 347003229#0 347003229#2 589551073#0 1051018092#0 345633934 1051018093#0 589539535#0 589533502#0 469165486#0 469165487 469165488#0 -469165489#1 -469165490#1 -537114618#10 -537114618#8 -537114618#5 -537114618#4 -537114618#2 -537114618#1 -468434115#1"/>
    </vehicle>
	<vehicle id="19" depart="0.00">
        <route edges="521221938 521198981 203119343 50429924 583698432 520537744 520537746 583705854 535520845#0 535520845#1 535520845#2 352412093#0 -352411913#1 -354202945#1 476103809#0 298832254#0 298832261#0 298832240 864614823#0 864614823#2 468469923#0 468469931#0 468469935#0 468469935#2 468469943#0 -479469615#3 -520463951#3 -520463951#1"/>
    </vehicle>
</routes>
