<?xml version="1.0" encoding="UTF-8"?>

<!-- generated on 2022-10-26 03:15:04 by Eclipse SUMO duarouter Version 1.10.0
	<routes>

    <input>
        <net-file value="/Users/nafiulhassan/veins-5.1/examples/veins/input/washingtondc/30/washingtondc.net.xml"/>
        <route-files value="/Users/nafiulhassan/veins-5.1/examples/veins/input/washingtondc/seed-8/40/washingtondc.trips.xml"/>
    </input>

    <output>
        <output-file value="/Users/nafiulhassan/veins-5.1/examples/veins/input/washingtondc/seed-8/40/washingtondc.rou.xml"/>
        <alternatives-output value="/Users/nafiulhassan/veins-5.1/examples/veins/input/washingtondc/seed-8/40/washingtondc.rou.alt.xml"/>
    </output>

    <report>
        <ignore-errors value="true"/>
    </report>

</configuration>
-->

	<routes>
	<vehicle id="0" depart="0.00">
        <route edges="-521198981 521198981 203119343 50429924 583698432 520537744 520537746 583705854 535520845#0 535520845#1 535520845#2 352412093#0 -438964977 -466359338#3 -466359338#1 469159256#0 469159256#3 469159259 469159258#0 469159258#1 469159258#2 468469919#0 1060936417 468433799#0 468433799#1 468433798#0 837279711#2"/>
    </vehicle>
	<vehicle id="1" depart="0.00">
        <route edges="-397327932#1 -397327934#2 397327934#0 397327932#0 397327939#0 397327938 397327933 397327935#0 589905511#0 120478695#0 120478695#3 120478695#4 120478695#5 -382850737#1 470165122"/>
    </vehicle>
	<vehicle id="2" depart="0.00">
        <route edges="-305660797#4 305660797#3 469165490#0 469165490#2 590581668#0 590581668#2 1049842802#0 1049842803 1049842804 589539534#0 1049287312#0 1049287312#2 126303354#0 126303354#2 345709542#0 1048676964#0 298848145#0 1047793071 298814315#0 508158270#0 421268132#0 439875857#0 590598870#0 509326776#0 650605162 6062204 988196201#0 -589551086#2"/>
    </vehicle>
	<vehicle id="3" depart="0.00">
        <route edges="998360408#0 998360408#1 397315033#0 -126303362#1 -130802371#2 -397303092#2 -397303090#1 421259825#0 74100353#0 508158273 508158270#0 421268132#0 439875857#0 590598870#0 509326776#0 650605162 6062204 988196201#0 29961175#0 155011691#0 421037430#0 130788227#0 130788227#2 -50511365#7"/>
    </vehicle>
	<vehicle id="4" depart="0.00">
        <route edges="466359338#0 -466359338#1 469159256#0 469159256#3 469159259 469159258#0 469159258#1 469159258#2 468469919#0 468469927#0 468469927#2 460536376#0 468469923#0 468469931#0 468469935#0 468469935#2 468469943#0 468469939#0 468469946#0 200019461#0 435424520#0 -420781368#1 -920893151#1 -6057581#6 -6057581#5 -6057581#4 -6057581#3 -6057581#2 -6057581#1 954271698#0 988196201#0 29961175#0 468469890#0 468469890#2 -296355738#2 296355738#1"/>
    </vehicle>
	<vehicle id="5" depart="0.00">
        <route edges="296355738#0 296355738#1 -468469890#3 -468469890#1 155011691#0 6056532#0 45838762#1 971624710 6062876#0 509325421 50799689#0 321444902#0 321444902#3 -130927087#2 130889749#0 130889749#2 397316524#0 -397316522 -298814317#2 468433794 436271294#0 409541717 535780677#0 298825115#1"/>
    </vehicle>
	<vehicle id="6" depart="0.00">
        <route edges="-47916246#1 -468469890#3 -468469890#1 155011691#0 6056532#0 45838762#1 971624710 6062876#0 509325421 468450542 130285122#0 126303355#0 347003228#0 347003229#0 347003229#2 589551073#0 1051018092#0 345633934 1051018093#0 589539535#0 589533502#0 469165486#0 469165487 469165488#0 -469165489#1 -469165490#1 -537114618#10 -537114618#8 -537114618#5 -537114618#4 -537114618#2 -537114618#1 537114618#0"/>
    </vehicle>
	<vehicle id="7" depart="0.00">
        <route edges="-333922526#3 -333922526#1 -50260020#7 -50260020#5 -50260020#3 -50260020#1 130927087#0 468433793#0 354079210 468433792#0 347003228#0 347003229#0 347003229#2 589551073#0 1051018092#0 345633934 1051018093#0 589539535#0 589533502#0 469165486#0 469165487 469165488#0 -469165489#1 -469165490#1 -537114618#10 -537114618#8 -537114618#5 -537114618#4"/>
    </vehicle>
	<vehicle id="8" depart="0.00">
        <route edges="-130788227#6 -130788227#3 -130788227#1 -421037430#2 6056532#0 6057581#0 6057581#2 -6057581#2"/>
    </vehicle>
	<vehicle id="9" depart="0.00">
        <route edges="130908292#0 130908292#2 130908292#3 509326344#0 6054254#0 50431292#0 6057417#0 130908289#0 130908289#3 130908289#5 130908289#6 130908289#7 130908289#9 130908289#11 1033847614#3 1033847615#0 6054895#0 6054895#2 6054895#3"/>
    </vehicle>
	<vehicle id="10" depart="0.00">
        <route edges="130889702#3 130889702#4 1052908775#0 983121554#4 983121554#6 983121554#7 983121554#9 469159256#0 469159256#3 469159259 469159258#0 469159258#1 469159258#2 468469919#0 468469927#0 468469927#2 460536376#0 468469923#0 468469931#0 -126303361#4 -126303361#1 -421077027 -723610179 -468433795#1 -203119342#1 -397327121#1 -468433796 -397327124#1 -347003327#2 -397316204#2 -397316195#1"/>
    </vehicle>
	<vehicle id="11" depart="0.00">
        <route edges="-6055383#2 130889755#0 130889756#0 130889756#3 130889756#5 130889756#7 130889757#0 698748857#0 589539536#0 589539536#2 589539536#3 589539536#4 590581668#0 590581668#2 1049842802#0 1049842803 1049842804 589539534#0 1049287312#0 1049287312#2 126303354#0 126303354#2 345709542#0 1048676964#0 298848145#0 1047793071 298814315#0 508158270#0 421268132#0 439875857#0 590598870#0 509326776#0 650605162 6062204 988196201#0 6057595#0 202992520#2 202992520#3 202992520#5 202992520#7 202992520#8 987878092 987878097#0"/>
    </vehicle>
	<vehicle id="12" depart="0.00">
        <route edges="-297294789#2 297294789#0 494175930#0 297368443#0 146537579#0 130285135#0 397319284#0 397319281#0 421734517#0 298814317#0 -347003330#3 347003328#0 -397303092#2 -397303090#1 -175873836#2 130802372#0 130802372#3 589551073#0 1051018092#0 345633934 1051018093#0 6060903#0 6060903#2 6060903#3 520532363 -121980352 -436136927#8 -436136927#6 -436136927#5 -436136927#4 -436136927#2 436136927#2"/>
    </vehicle>
	<vehicle id="13" depart="0.00">
        <route edges="130889684#0 50431293#0 469154544 6063274#0 1049303874#0 130889755#0 130889756#0 130889756#3 130889756#5 130889756#7 130889757#0 698748857#0 589539536#0 589539536#2 589539536#3 589539536#4 590581668#0 590581668#2 1049842802#0 1049842803 1049842804 589539534#0 1049287312#0 1049287312#2 6061944#0 468433806#0 468433805"/>
    </vehicle>
	<vehicle id="14" depart="0.00">
        <route edges="125568108#0 -125568108#1 -130788190 -130788195 -130788192#2 -321444899#2 130285122#0 126303355#0 347003228#0 347003229#0 347003229#2 589551073#0 1051018092#0 345633934 1051018093#0 589539535#0 589533502#0 468434122#0 468434122#2 695842775 469157093 469157092"/>
    </vehicle>
	<vehicle id="15" depart="0.00">
        <route edges="29961175#0 155011691#0 6056532#0 6057581#0 6057581#2 6057581#3 6057581#4 6057581#5 6057581#6 920893151#0 420781368#0 435424521#0 308739814#0 435424522#0 435424522#2 435424522#4 48018661#0 130772931#1 575569268 130772928#0 121863780#0 121863780#1 988487224#0 48018630 988487225#0 130889704#0 130889704#1 837279711#0 837279711#2 837279711#4 1051205229#0 1051205229#1 130889702#0 130889702#3 130889702#4 1052908775#0 130889705#0 130889705#2 697824964#0 454815093#0 696806633#0 696806633#2 590605528#0 590605528#2 590605528#3 466359339#0 466359339#1"/>
    </vehicle>
	<vehicle id="16" depart="0.00">
        <route edges="6055382#0 687108617#0 435106239#0 469154542 6057417#0 6056366#0 6056366#3 130889756#0 130889756#3 130889756#5 130889756#7 130889757#0 698748857#0 589539536#0 589539536#2 589539536#3 589539536#4 590581668#0 590581668#2 1049842802#0 1049842803 1049842804 589539534#0 1049287312#0 1049287312#2 126303354#0 126303354#2 345709542#0 1048676964#0 298848145#0 130285121#0 508158271 508158272#0 130889749#0 130889749#2 397316524#0 -397316522 347003330#4 589533563#0 589539518#0 589539518#2 297380210#0 297380210#2 589539537#0 397327934#0 397327932#0"/>
    </vehicle>
	<vehicle id="17" depart="0.00">
        <route edges="-421290235#2 -397316195#1 -397316186#1 347003330#0 347003330#4 589533563#0 589539518#0 589539518#2 297380210#0 297380210#2 589539537#0 397327934#0 397327932#0 397327939#0 397327938 397327933 397327935#0 -297294792#2"/>
    </vehicle>
	<vehicle id="19" depart="0.00">
        <route edges="-47916247#1 -297296749#2 297296770#0 6056532#0 45838762#1 971624710 6062876#0 509325421 468450542 130285122#0 126303355#0 347003228#0 347003229#0 347003229#2 589551073#0 1051018092#0 345633934 1051018093#0 589539535#0 589533502#0 468434122#0 468434122#2 695842776#0"/>
    </vehicle>
	<vehicle id="20" depart="0.00">
        <route edges="397327937#0 -397327937#1 -397327936#1 589905511#0 120478695#0 120478695#3 120478695#4 120478695#5 468441885#0 468441885#2 202992519#0 -6057595#2 -988196201#2 -6062204 6062876#0 509325421 468450542 130285122#0 126303355#0 347003228#0 347003229#0 347003229#2 589551073#0 1051018092#0 345633934 1051018093#0 589539535#0 589533502#0 468434122#0 468434122#2 695842775 469157093 583698433#0 696806631#0 -496467787#1 496467787#0"/>
    </vehicle>
	<vehicle id="21" depart="0.00">
        <route edges="590581593#2 590581593#4 -202992520#4 -202992520#2 -6057595#2 -988196201#2 -6062204 6062876#0 509325421 50799689#0 321444902#0 321444902#3 354079209#0 987879163#0 508158268 987879162#0 -397316204#2 -397316195#1 -397316186#1 -397316180#1 -397316171 -397316176#1 -70948803#2"/>
    </vehicle>
	<vehicle id="22" depart="0.00">
        <route edges="130772931#1 575569268 130772928#0 121863780#0 121863780#1 988487224#0 988487222 988487223 130772929#0 468469915#0 48018646#0 48018646#2 1052604510#0 -435424522#5 -435424522#3 -435424522#1 -308739814#1 -435424521#1 -420781368#1 -920893151#1 -6057581#6 -6057581#5 -6057581#4 -6057581#3 -6057581#2 -6057581#1 954271698#0 988196201#0 -589551086#2 589551086#0"/>
    </vehicle>
	<vehicle id="23" depart="0.00">
        <route edges="-397329580#1 -6054886#1 -397329577#1 397321701#0 130802376#0 589551086#0 29961175#0 155011691#0 421037430#0 130788227#0 130788227#2 -50511365#7 -50511365#4 -50511365#3 50511365#3"/>
    </vehicle>
	<vehicle id="24" depart="0.00">
        <route edges="-347003330#3 347003328#0 -397303092#2 -397303090#1 -175873836#2 130802372#0 130802372#3 589551073#0 1051018092#0 345633934 1051018093#0 589539535#0 589533502#0 469165486#0 469165487 469165488#0 -469165489#1 -469165490#1 -537114618#10 -537114618#8 -537114618#5 -537114618#4 -537114618#2 6062881#0 985067151 130285133#0-AddedOnRampEdge 130285133#0 6056363#0 6056363#2 6056363#3 130889760#0 131463018#0 509326252#0 469154543"/>
    </vehicle>
	<vehicle id="25" depart="0.00">
        <route edges="476103804 476103801 321477125#6 520537743#0 520537743#1 354436361#0 354436361#1 354436361#2 589533582 469157092 1048252755#0 589533511 520537739 589905634 466349884 1049230589 1049226223#0 1049226223#1 696737929#0 696737929#1 696737929#2"/>
    </vehicle>
	<vehicle id="26" depart="0.00">
        <route edges="583698432 520537744 520537746 583705854 535520845#0 535520845#1 535520845#2 352412093#0 -352411913#1 -354202945#1 476103809#0 298832254#0 298832261#0 126303356#0 476103811 476103813#0 298815729#0 352412039#0 47920785#0 352412073 509646034#0 434444693#0 130788155#0 -6062201#2 971624710 29961183#0"/>
    </vehicle>
	<vehicle id="27" depart="0.00">
        <route edges="-49299976 -468433797#3 -468433797#2 837279711#2 837279711#4 1051205229#0 1051205229#1 436136927#0 436136927#2 436136927#3 -436136927#4"/>
    </vehicle>
	<vehicle id="28" depart="0.00">
        <route edges="347003330#0 347003330#4 589533563#0 -347003329#2 -333922526#3 -333922526#1 333922462#0 648026207#0 321444900"/>
    </vehicle>
	<vehicle id="30" depart="0.00">
        <route edges="321477125#3 321477125#4 321477125#5 321477125#6 520537743#0 520537743#1 354436361#0 354436361#1 354436361#2 583698434 583698432 520537744 520537746 583705854 535520845#0 535520845#1 323742932 -126303366#1 469165486#0 469165487 469165488#0"/>
    </vehicle>
	<vehicle id="31" depart="0.00">
        <route edges="-514191883#2 514191883#0 -120478695#2 397329575#0 397329570 397329572#0 297380214#0 297380214#3 -297380210#3 -297380210#1 -589539518#3 -589539518#1"/>
    </vehicle>
	<vehicle id="32" depart="0.00">
        <route edges="-126303366#1 126303366#0 126303365 352412093#0 -352411913#1 -354202945#1 476103809#0 298832254#0 298832261#0 126303356#0 476103811 476103813#0 298815729#0 352412039#0 47920785#0 352412073 509646034#0 434444693#0 130788192#0 130788195 130788190 125568108#0 125568108#2 125568108#3"/>
    </vehicle>
	<vehicle id="33" depart="0.00">
        <route edges="-6057581#5 -6057581#4 -6057581#3 -6057581#2 -6057581#1 954271698#0 988196201#0 6057595#0 -202992519#2 -468441158#1 -468441885#1 -468441884 -120478695#4 -120478695#3 -120478695#2 -130908059#2 -131052512#5 -131052512#3 131052512#3"/>
    </vehicle>
	<vehicle id="34" depart="0.00">
        <route edges="130889684#0 50431293#0 469154544 6063274#0 1049303874#0 130889755#0 130285119#0 130285119#2 130285119#3 923370378#10 468434115#0 537114618#0 537114618#2 537114618#3 537114618#5 537114618#6 537114618#9"/>
    </vehicle>
	<vehicle id="35" depart="0.00">
        <route edges="6053702#3 509326344#0 6054254#0 50431292#0 6057417#0 6056366#0 6056366#3 130889756#0 130889756#3 130889756#5 130889756#7 130889757#0 698748857#0 589539536#0 589539536#2 589539536#3 589539536#4 590581668#0 590581668#2 1049842802#0 1049842803 1049842804 589539534#0 1049287312#0 1049287312#2 126303354#0 126303354#2 345709542#0 1048676964#0 298848145#0 130285121#0 508158271 508158272#0 50260020#0 50260020#2 50260020#4 50260020#6 -297382770#5 -297382770#2 297382769#0 297382769#4 130802359#0 130802359#2 470165122 -468441884"/>
    </vehicle>
	<vehicle id="36" depart="0.00">
        <route edges="130908282 468433804 203119345#0 1060936417 468433799#0 468433799#1 468433798#0 468433797#0 468433797#3 49299976 -49299976 -468433797#3"/>
    </vehicle>
	<vehicle id="37" depart="0.00">
        <route edges="468436770 130285136#0 -130285136#2 -468436770 -698748856#1 -26707840#1 -469154540#1 -537114618#10 -537114618#8 -537114618#5 -537114618#4 -537114618#2 -537114618#1 -468434115#1 -923370378#11 -923370378#9 -923370378#7 -923370378#6 923370378#5"/>
    </vehicle>
	<vehicle id="38" depart="0.00">
        <route edges="-50260020#5 50260020#4 50260020#6 333922526#0 333922526#2 347003329#0 333922765#0 397317310#0 397319276 297456132#0 397324964#0 397324962 146537578#0 297295058#0 146537585#0 297273914#0 50513886#0 50513886#1"/>
    </vehicle>
	<vehicle id="39" depart="0.00">
        <route edges="-988196201#2 -6062204 6062876#0 509325421 468450542 130285122#0 126303355#0 347003228#0 347003229#0 347003229#2 589551073#0 1051018092#0 345633934 1051018093#0 589539535#0 589533502#0 468434122#0 468434122#2 695842775 469157093 583698433#0 -130285136#2"/>
    </vehicle>
</routes>
