<?xml version="1.0" encoding="UTF-8"?>
<!-- generated on 2022-10-26 03:08:32.871941 by $Id$ UNKNOWN
  options: -n /Users/nafiulhassan/veins-5.1/examples/veins/input/washingtondc/20/washingtondc.net.xml -s 21 -e 20 -o /Users/nafiulhassan/veins-5.1/examples/veins/input/washingtondc/seed-21/20/washingtondc.trips.xml
-->
<routes xmlns:xsi="http://www.w3.org/2001/XMLSchema-instance" xsi:noNamespaceSchemaLocation="http://sumo.dlr.de/xsd/routes_file.xsd">
    <trip id="0" depart="0.00" from="-468433796" to="469154543"/>
    <trip id="1" depart="1.00" from="45838766#1" to="297380210#2"/>
    <trip id="2" depart="2.00" from="-509645504#3" to="509326344#0"/>
    <trip id="3" depart="3.00" from="520537739" to="321477125#0"/>
    <trip id="4" depart="4.00" from="321444902#0" to="-543909823#1"/>
    <trip id="5" depart="5.00" from="-120478695#2" to="130788207#4"/>
    <trip id="6" depart="6.00" from="397354452#0" to="-297380211#3"/>
    <trip id="7" depart="7.00" from="509646035#2" to="-537114618#1"/>
    <trip id="8" depart="8.00" from="-537114618#2" to="-202992522#3"/>
    <trip id="9" depart="9.00" from="998338690#0" to="50260020#2"/>
    <trip id="10" depart="10.00" from="589551086#0" to="435424520#0"/>
    <trip id="11" depart="11.00" from="-131052512#5" to="1052908774#0"/>
    <trip id="12" depart="12.00" from="29961175#0" to="-397316522"/>
    <trip id="13" depart="13.00" from="696806633#2" to="130788195"/>
    <trip id="14" depart="14.00" from="-438958617#6" to="520537749-AddedOnRampEdge"/>
    <trip id="15" depart="15.00" from="-397327121#1" to="6059056#2"/>
    <trip id="16" depart="16.00" from="296355738#0" to="397315035#2"/>
    <trip id="17" depart="17.00" from="126303361#0" to="297382770#0"/>
    <trip id="18" depart="18.00" from="-469165490#1" to="-202992519#2"/>
    <trip id="19" depart="19.00" from="589539519#2" to="-537114618#5"/>
</routes>
