<?xml version="1.0" encoding="UTF-8"?>
<!-- generated on 2022-10-26 03:08:28.407654 by $Id$ UNKNOWN
  options: -n /Users/nafiulhassan/veins-5.1/examples/veins/input/washingtondc/20/washingtondc.net.xml -s 12 -e 20 -o /Users/nafiulhassan/veins-5.1/examples/veins/input/washingtondc/seed-12/20/washingtondc.trips.xml
-->
<routes xmlns:xsi="http://www.w3.org/2001/XMLSchema-instance" xsi:noNamespaceSchemaLocation="http://sumo.dlr.de/xsd/routes_file.xsd">
    <trip id="0" depart="0.00" from="297380211#0" to="468433797#3"/>
    <trip id="1" depart="1.00" from="468450553#0" to="-423602319#1"/>
    <trip id="2" depart="2.00" from="-126303362#1" to="130802359#0"/>
    <trip id="3" depart="3.00" from="-6060903#4" to="520532361#0"/>
    <trip id="4" depart="4.00" from="469159258#1" to="421075190#2"/>
    <trip id="5" depart="5.00" from="397318413" to="468433806#0"/>
    <trip id="6" depart="6.00" from="-423607087" to="202992522#0"/>
    <trip id="7" depart="7.00" from="-468433791#1" to="6055389#0"/>
    <trip id="8" depart="8.00" from="-296365351#5" to="520546834#0"/>
    <trip id="9" depart="9.00" from="-297382770#5" to="469151751"/>
    <trip id="10" depart="10.00" from="121980349" to="130908289#0"/>
    <trip id="11" depart="11.00" from="583698431#0" to="-130788195"/>
    <trip id="12" depart="12.00" from="-296365924#1" to="6057204#0"/>
    <trip id="13" depart="13.00" from="321477125#5" to="-333922766#3"/>
    <trip id="14" depart="14.00" from="983121554#7" to="695842776#1"/>
    <trip id="15" depart="15.00" from="-397316176#1" to="131052512#3"/>
    <trip id="16" depart="16.00" from="-397329580#1" to="1036008538"/>
    <trip id="17" depart="17.00" from="438958617#3" to="-468433793#1"/>
    <trip id="18" depart="18.00" from="469165490#2" to="-26572919#2"/>
    <trip id="19" depart="19.00" from="-468433806#1" to="520537747"/>
</routes>
