<?xml version="1.0" encoding="UTF-8"?>

<!-- generated on 2022-10-26 03:15:16 by Eclipse SUMO duarouter Version 1.10.0
	<routes>

    <input>
        <net-file value="/Users/nafiulhassan/veins-5.1/examples/veins/input/washingtondc/30/washingtondc.net.xml"/>
        <route-files value="/Users/nafiulhassan/veins-5.1/examples/veins/input/washingtondc/seed-11/40/washingtondc.trips.xml"/>
    </input>

    <output>
        <output-file value="/Users/nafiulhassan/veins-5.1/examples/veins/input/washingtondc/seed-11/40/washingtondc.rou.xml"/>
        <alternatives-output value="/Users/nafiulhassan/veins-5.1/examples/veins/input/washingtondc/seed-11/40/washingtondc.rou.alt.xml"/>
    </output>

    <report>
        <ignore-errors value="true"/>
    </report>

</configuration>
-->

	<routes>
	<vehicle id="0" depart="0.00">
        <route edges="292148140#3 50511237#0 297296770#0 6056532#0 45838762#1 971624710 6062876#0 252140542#0 252140542#3 589539519#0 589539519#2 589539517#0 297444238#0 542269314#0 509649677 397317304 397317307#0"/>
    </vehicle>
	<vehicle id="1" depart="0.00">
        <route edges="6058077#0 583695032 397321711#1 397321711#2 509640269 920636360#0 589551072#0 6063274#0 1049303874#0 130889755#0 130889756#0 130889756#3 130889756#5 130889756#7 130889757#0 698748857#0 589539536#0 589539536#2 589539536#3 589539536#4 590581668#0 590581668#2 1049842802#0 1049842803 1049842804 589539534#0 1049287312#0 1049287312#2 126303354#0 126303354#2 345709542#0 1048676964#0 298848145#0 130285121#0 508158271 508158272#0 130889749#0 130889749#2 397316524#0 -397316522 -298814317#2 468433794 397319278#0 298814316 454817812 146537575#0 397319276 297456132#0 397324964#0 397324962 146537578#0 297295058#0 146537585#0 297273914#0 910190956#0 297273915#2"/>
    </vehicle>
	<vehicle id="2" depart="0.00">
        <route edges="321477125#4 421075190#1 421075190#2 421075190#3 543909823#0 985426725#0 985426724 468436769#0 6056069#0 589533583#0 589539536#0 589539536#2 589539536#3 589539536#4 590581668#0 590581668#2 1049842802#0 1049842803 1049842804 589539534#0 1049287312#0 1049287312#2 126303354#0 126303354#2 345709542#0 1048676964#0 298848145#0 130285121#0 508158271 508158272#0 130889749#0 130889749#2 397316524#0 -397316522 347003330#4 589533563#0 589539518#0 589539518#2 297380210#0 297380210#2 -297380214#6 -297380214#2 -397329572#1 -397329570 -397329575#1 397329575#0 397329570 397329572#0"/>
    </vehicle>
	<vehicle id="4" depart="0.00">
        <route edges="442066186#0 353283534#0 353283534#1 323742931 126303364 323742932 -126303366#1 469165486#0 469165487 469165488#0 -469165489#1 -469165490#1 -537114618#10 -537114618#8 -537114618#5 -537114618#4 -537114618#2 6062881#0 985067151 130285133#0-AddedOnRampEdge 130285133#0 6056363#0 6056363#2 6056363#3 203119341#0 696806636#0 696806637#0 130908292#0 130908292#2 130908292#3 509326344#0"/>
    </vehicle>
	<vehicle id="5" depart="0.00">
        <route edges="-347003226 347003226 521200399 468433791#0 347003227 756406654#0 347003228#0 347003229#0 347003229#2 589551073#0 1051018092#0 345633934 1051018093#0 589539535#0 589533502#0 468434122#0 468434122#2 695842775 469157093 583698433#0 -468436769#1 -985426724"/>
    </vehicle>
	<vehicle id="6" depart="0.00">
        <route edges="-333922766#1 -397327937#1 -397327936#1 589905511#0 120478695#0 120478695#3 120478695#4 120478695#5 468441885#0 468441885#2 202992519#0 -6057595#2 -988196201#2 -6062204 6062876#0 509325421 468450542 130285122#0 126303355#0 347003228#0 347003229#0 347003229#2 589551073#0 1051018092#0 345633934 1051018093#0 589539535#0 -130908283#4 -130908283#2 -130908283#1 520532361#0 520532355#0"/>
    </vehicle>
	<vehicle id="7" depart="0.00">
        <route edges="469165485#0 442066186#0 353283535#0 353283535#2 469159257#0 469159256#0 469159256#3 469159259 469159258#0 469159258#1 469159258#2 468469919#0 468469927#0 468469927#2 460536376#0 468469923#0 468469931#0 468469935#0 468469935#2 468469943#0 468469939#0 468469946#0 200019461#0 435424520#0 -420781368#1 -920893151#1 -6057581#6 -6057581#5 -6057581#4 -6057581#3 -6057581#2 -6057581#1 954271698#0 988196201#0 -589551086#2 -202992522#3"/>
    </vehicle>
	<vehicle id="8" depart="0.00">
        <route edges="983121553#0 -983121553#0 983121554#0 983121554#4 983121554#6 983121554#7 983121554#9 469159256#0 469159256#3 469159259 469159258#0 469159258#1 469159258#2 468469919#0 468469927#0 468469927#2 460536376#0 468469923#0 468469931#0 468469935#0 468469935#2 468469943#0 468469939#0 468469946#0 200019461#0 435424520#0 -420781368#1 -854143897#2 854143897#0"/>
    </vehicle>
	<vehicle id="9" depart="0.00">
        <route edges="468433799#1 468433798#0 -468433798#1 -468433799#1 -468433799#0 -468433800 468469927#0 468469927#2 460536376#0 468469923#0 468469931#0 468469935#0 468469935#2 468469943#0 468469939#0 468469946#0 200019461#0 435424520#0"/>
    </vehicle>
	<vehicle id="10" depart="0.00">
        <route edges="-45838763#1 45838763#0 397316203#0 70948803#0 397316176#0 397316171 397316180#0 397316186#0 397316195#0 397316204#0 347003327#0 397327124#0 468433796 397327121#0 347003229#0 347003229#2 589551073#0 1051018092#0 345633934 1051018093#0 589539535#0 589533502#0 468434122#0 468434122#2 695842775 469157093 469157092 468434120#0 345633936#0 466349886#0 466349886#2 466349886#3 -130788158#1"/>
    </vehicle>
	<vehicle id="11" depart="0.00">
        <route edges="347003330#0 347003330#4 589533563#0 589539518#0 589539518#2 297380210#0 297380210#2 -297380214#6 -297380214#2 -397329572#1 -397329570 -397329575#1 120478695#0 -514191883#2 -514191882#1 -296365351#6"/>
    </vehicle>
	<vehicle id="12" depart="0.00">
        <route edges="-476103809#1 354202945#0 50429913 436136929#2-AddedOnRampEdge 436136929#2 438964976#0 520537749-AddedOnRampEdge 520537749 466359342#0 466359342#3 454815093#0 696806633#0 696806633#2 935806772#0 935806772#2 1054633206#0 237743944#0 237743944#2 1049235346#0 130889700#0 468434114#0 468434113#0 468434113#1 468434113#2 50524890#5 6061544 -589533512#0"/>
    </vehicle>
	<vehicle id="13" depart="0.00">
        <route edges="-131052297#2 -297294791#2 131052386#3 131052386#6 -296365924#2 296367654#0"/>
    </vehicle>
	<vehicle id="14" depart="0.00">
        <route edges="203119341#0 130908289#3 130908289#5 130908289#6 130908289#7 50797098#3 50797098#6 50797098#8 130889756#7 130889757#0 698748857#0 589539536#0 589539536#2 589539536#3 589539536#4 590581668#0 590581668#2 1049842802#0 1049842803 1049842804 589539534#0 1049287312#0 1049287312#2 126303354#0 126303354#2 345709542#0 1048676964#0 298848145#0 1047793071 298814315#0 508158270#0 421268132#0 439875858#1 439875858#4 439875858#6 439875858#8 516085385 509646035#0 509646035#2 130788204#0 130788207#0 130788207#2 575569267#7"/>
    </vehicle>
	<vehicle id="15" depart="0.00">
        <route edges="345633935#0 6057204#0 985426725#0 985426724 468436769#0 6056069#0 589533583#0 589539536#0 589539536#2 589539536#3 589539536#4 590581668#0 590581668#2 1049842802#0 1049842803 1049842804 589539534#0 1049287312#0 1049287312#2 126303354#0 126303354#2 345709542#0 1048676964#0 298848145#0 130285121#0 508158271 508158272#0 130889749#0 130889749#2 397316524#0 -397316522 -298814317#2 468433794 397319278#0 298814316 454817812 146537575#0 397319276 297456132#0 397324964#0 397324962 146537578#0 297295058#0 45838766#0"/>
    </vehicle>
	<vehicle id="16" depart="0.00">
        <route edges="305660797#0 -305660797#0 -1054351818#1 -175873836#2 130802372#0 130802372#3 589551073#0 1051018092#0 345633934 1051018093#0 589539535#0 589533502#0 468434122#0 468434122#2 695842775 469157093 469157092 468434120#0 345633936#0 466349886#0 466349886#2 466349886#3 50524890#1 50524890#2 50524890#3 468434112#0"/>
    </vehicle>
	<vehicle id="17" depart="0.00">
        <route edges="296365351#6 514191882#0 514191883#0 120478695#3 120478695#4 120478695#5 468441885#0 468441885#2 202992522#0 202992522#2 202992524#0 -6061387#5"/>
    </vehicle>
	<vehicle id="18" depart="0.00">
        <route edges="998338690#0 998338690#6 47916248#0 397363850#1 130802361#0 6052882#0 435424522#0 435424522#2 435424522#4 48018661#0 130772931#1 575569268 130772928#0 121863780#0 121863780#1 988487224#0"/>
    </vehicle>
	<vehicle id="19" depart="0.00">
        <route edges="575569268 130772928#0 121863780#0 121863780#1 988487224#0 48018630 988487225#0 130889704#0 130889704#1 837279711#0 837279711#2 837279711#4 1051205229#0 1051205229#1 130889702#0 130889702#3 130889702#4 1052908775#0 130889705#0 130889705#2 697824964#0 454815093#0 696806633#0 696806633#2 935806772#0 935806772#2 1054633206#0 237743944#0 237743944#2 1049235346#0 130908291#0 466359340#0 466359340#1 535462248 476103806 476103805"/>
    </vehicle>
	<vehicle id="20" depart="0.00">
        <route edges="1049287312#2 126303354#0 126303354#2 345709542#0 1048676964#0 397327124#0 468433796 397327121#0 203119342#0 468433795#0 723610179 298815729#0 352412039#0 -347003226 -535546520#4 -535546520#1"/>
    </vehicle>
	<vehicle id="21" depart="0.00">
        <route edges="-923370378#2 923370378#1 923370378#3 923370378#5 923370378#7 923370378#8 923370378#10 468434115#0 537114618#0 537114618#2 537114618#3 537114618#5 537114618#6 537114618#9 469165490#0 469165490#2 590581668#0 590581668#2 1049842802#0 1049842803 1049842804 589539534#0 1049287312#0 1049287312#2 126303354#0 126303354#2 345709542#0 1048676964#0 298848145#0 1047793071 298814315#0 508158270#0 421268132#0 439875857#0 590598870#0 509326776#0 650605162 6062204 988196201#0 6057595#0 202992520#2 202992520#3 -590581593#5 -590581593#3 -590581593#1 -297380211#8"/>
    </vehicle>
	<vehicle id="22" depart="0.00">
        <route edges="50524889#3 50524889#7 50524889#10 -50799230#8 -50799230#6 -50799230#5 -50799230#2 -50799230#1 6057204#0 985426725#0 985426724 468436769#0 6056069#0 589533583#0 589539536#0 589539536#2 589539536#3 589539536#4 590581668#0 590581668#2 1049842802#0 1049842803 1049842804 589539534#0 1049287312#0 1049287312#2 126303354#0 126303354#2 345709542#0 1048676964#0 298848145#0 130285121#0 508158271 508158272#0 130889749#0 130889749#2 397316524#0 -397316522 347003330#4 589533563#0 589539518#0 589539518#2 297380210#0 297380210#2 -297380214#6 -297380214#2 -397329572#1 -397329570 -397329575#1 -130908059#2 130908059#0"/>
    </vehicle>
	<vehicle id="23" depart="0.00">
        <route edges="583705856#0 583705856#1 583705856#2 503185211 50429924 583698432 520537744 520537746 583705854 535520845#0 535520845#1 535520845#2 352412093#0 -352411913#1 -354202945#1 476103809#0 298832254#0 298832261#0 298832240 864614823#0 864614823#2 298832235#0 298832235#3 298832235#4 48018653 48018648#0 468469915#0 468469915#1 130772931#1 575569268 130772928#0 121863780#0 121863780#1 988487224#0 48018630 988487225#0 130889704#0 130889704#1"/>
    </vehicle>
	<vehicle id="24" depart="0.00">
        <route edges="70948801#3 439875858#1 126303355#0 347003228#0 347003229#0 347003229#2 589551073#0 1051018092#0 345633934 1051018093#0 589539535#0 589533502#0 468434122#0 468434122#2 695842776#0 695842776#1 520537745 466349883 583705856#0 583705856#1 583705856#2 503185211 50429924 583698432"/>
    </vehicle>
	<vehicle id="25" depart="0.00">
        <route edges="-1008299672 -423607087 589551072#0 6063274#0 1049303874#0 130889755#0 130889756#0 130889756#3 130889756#5 130889756#7 130889757#0 698748856#0 468436770 130285136#0 -468436769#1 -985426724 -985426725#1 -543909823#1 345633935#0 50799230#0 -50799230#1"/>
    </vehicle>
	<vehicle id="26" depart="0.00">
        <route edges="6056366#3 130889756#0 130889756#3 130889756#5 130889756#7 130889757#0 698748857#0 589539536#0 589539536#2 589539536#3 589539536#4 590581668#0 590581668#2 1049842802#0 1049842803 1049842804 589539534#0 1049287312#0 1049287312#2 126303354#0 126303354#2 345709542#0 1048676964#0 298848145#0 130285121#0 508158271 508158272#0 130889749#0 130889749#2 397316524#0 -397316522 -298814317#2 468433794 397319278#0 298814316 454817812 146537575#0 397319276 297456132#0 397324964#0 397324962 146537578#0 -297294789#2 297294789#0"/>
    </vehicle>
	<vehicle id="27" depart="0.00">
        <route edges="961869114#0 496467785#0 985426724 468436769#0 6056069#0 589533583#0 589533584#0 695842776#0 695842776#1 520537745 466349883 583705855 469165475 130889758#0 130889758#2 130889758#3 130889758#4 130889758#6"/>
    </vehicle>
	<vehicle id="28" depart="0.00">
        <route edges="-297382769#6 -297382769#3 297382770#0 297382770#3 -50260020#7 -50260020#5 -50260020#3 -50260020#1 130927087#0 468433793#0 354079210 468433792#0 347003228#0 347003229#0 347003229#2 589551073#0 1051018092#0 345633934 1051018093#0 589539535#0 589533502#0 468434122#0 468434122#2 695842775 469157093 469157092 468434120#0 345633935#0 345633935#3 345633935#5 438958617#9"/>
    </vehicle>
	<vehicle id="29" depart="0.00">
        <route edges="50799606#0 397319279#0 70948803#0 397316176#0 397316171 397316180#0 397316186#0 397316195#0 397316204#0 74100353#0 508158273 508158270#0 421268132#0 439875857#0 590598870#0 321444898 321444899#0 130788192#0 435424520#0 -420781368#1 -920893151#1 -6057581#6"/>
    </vehicle>
	<vehicle id="30" depart="0.00">
        <route edges="-321444899#2 130285122#0 126303355#0 347003228#0 347003229#0 347003229#2 131448559#0 397364246#2 298832240 864614824#0 203119345#0 1060936417"/>
    </vehicle>
	<vehicle id="31" depart="0.00">
        <route edges="864614823#0 -864614823#1 -298832240 -298832261#2 -298832254#2 -476103809#1 -520532363 -6060903#4 -6060903#2 -6060903#1 589539535#0 589533502#0 468434122#0 468434122#2 695842775 469157093 469157092 1048252755#0 589533511 354436361#0 354436361#1 50429929"/>
    </vehicle>
	<vehicle id="32" depart="0.00">
        <route edges="-397318410#1 -397318411#1 -333922765#2 -589533563#2 589539521#0 -589539522#2"/>
    </vehicle>
	<vehicle id="33" depart="0.00">
        <route edges="-352412083 476103811 476103813#0 298815729#0 352412039#0 47920785#0 352412073 509646034#0 434444693#0 130788155#0 131520206#0 650605162 6062204 988196201#0 6057595#0 -202992519#2 -468441158#1 -468441885#1 -468441884 -120478695#4 -120478695#3 -514191883#2 -514191882#1 -296365351#6"/>
    </vehicle>
	<vehicle id="34" depart="0.00">
        <route edges="514191882#0 297380211#4 297380211#7 -590581594#1 -468450553#1"/>
    </vehicle>
	<vehicle id="35" depart="0.00">
        <route edges="397318415#0 397318413 298814317#0 -347003330#3 347003328#0 -397303092#2 -397303090#1 -175873836#2 130802372#0 130802372#3 589551073#0 1051018092#0 345633934 1051018093#0 589539535#0 589533502#0 468434122#0 468434122#2 695842775 469157093 469157092 1048252755#0 589533511 354436361#0 354436361#1 50429929 521198981 203119343"/>
    </vehicle>
	<vehicle id="36" depart="0.00">
        <route edges="-476103813#1 476103813#0 298815729#0 352412039#0 47920785#0 50429906 49999716#2 49999716#3"/>
    </vehicle>
	<vehicle id="37" depart="0.00">
        <route edges="-397327939#1 26572919#3 297380214#3 -297380210#3 -297380210#1 -589539518#3 -589539518#1 -589533563#2 -347003330#6 -347003330#3 347003328#0 -397303092#2 -397303090#1 -175873836#2 130802372#0 130802372#3 589551073#0 1051018092#0 345633934 1051018093#0 589539535#0 589533502#0 468434122#0 468434122#2 695842776#0 695842776#1 520537745 466349883"/>
    </vehicle>
	<vehicle id="38" depart="0.00">
        <route edges="-397316522 397316523#0 -397316524#1 -130889749#2 -130889749#1 130927087#0 421268132#0 439875857#0 590598870#0 509326776#0 650605162 6062204 988196201#0 29961175#0 155011691#0 50710195#0 50710195#2 297296762#0 131052515 131052508#0 131052508#2 131052508#3"/>
    </vehicle>
	<vehicle id="39" depart="0.00">
        <route edges="-50799230#8 -50799230#6 -50799230#5 -50799230#2 -50799230#1 6057204#0 985426725#0 985426724 468436769#0 6056069#0 589533583#0 589539536#0 589539536#2 589539536#3 589539536#4 590581668#0 590581668#2 1049842802#0 1049842803 1049842804 589539534#0 1049287312#0 1049287312#2 126303354#0 126303354#2 345709542#0 1048676964#0 298848145#0 1047793071 298814315#0 508158270#0 421268132#0 439875857#0 590598870#0 321444898 321444899#0 130788192#0 435424520#0 -420781368#1 -920893151#1 -6057581#6"/>
    </vehicle>
</routes>
