<?xml version="1.0" encoding="UTF-8"?>
<!-- generated on 2022-10-26 03:15:16.441395 by $Id$ UNKNOWN
  options: -n /Users/nafiulhassan/veins-5.1/examples/veins/input/washingtondc/30/washingtondc.net.xml -s 11 -e 40 -o /Users/nafiulhassan/veins-5.1/examples/veins/input/washingtondc/seed-11/40/washingtondc.trips.xml
-->
<routes xmlns:xsi="http://www.w3.org/2001/XMLSchema-instance" xsi:noNamespaceSchemaLocation="http://sumo.dlr.de/xsd/routes_file.xsd">
    <trip id="0" depart="0.00" from="292148140#3" to="397317307#0"/>
    <trip id="1" depart="1.00" from="6058077#0" to="297273915#2"/>
    <trip id="2" depart="2.00" from="321477125#4" to="397329572#0"/>
    <trip id="3" depart="3.00" from="-469165487" to="321477125#0"/>
    <trip id="4" depart="4.00" from="442066186#0" to="509326344#0"/>
    <trip id="5" depart="5.00" from="-347003226" to="-985426724"/>
    <trip id="6" depart="6.00" from="-333922766#1" to="520532355#0"/>
    <trip id="7" depart="7.00" from="469165485#0" to="-202992522#3"/>
    <trip id="8" depart="8.00" from="983121553#0" to="854143897#0"/>
    <trip id="9" depart="9.00" from="468433799#1" to="435424520#0"/>
    <trip id="10" depart="10.00" from="-45838763#1" to="-130788158#1"/>
    <trip id="11" depart="11.00" from="347003330#0" to="-296365351#6"/>
    <trip id="12" depart="12.00" from="-476103809#1" to="-589533512#0"/>
    <trip id="13" depart="13.00" from="-131052297#2" to="296367654#0"/>
    <trip id="14" depart="14.00" from="203119341#0" to="575569267#7"/>
    <trip id="15" depart="15.00" from="345633935#0" to="45838766#0"/>
    <trip id="16" depart="16.00" from="305660797#0" to="468434112#0"/>
    <trip id="17" depart="17.00" from="296365351#6" to="-6061387#5"/>
    <trip id="18" depart="18.00" from="998338690#0" to="988487224#0"/>
    <trip id="19" depart="19.00" from="575569268" to="476103805"/>
    <trip id="20" depart="20.00" from="1049287312#2" to="-535546520#1"/>
    <trip id="21" depart="21.00" from="-923370378#2" to="-297380211#8"/>
    <trip id="22" depart="22.00" from="50524889#3" to="130908059#0"/>
    <trip id="23" depart="23.00" from="583705856#0" to="130889704#1"/>
    <trip id="24" depart="24.00" from="70948801#3" to="583698432"/>
    <trip id="25" depart="25.00" from="-1008299672" to="-50799230#1"/>
    <trip id="26" depart="26.00" from="6056366#3" to="297294789#0"/>
    <trip id="27" depart="27.00" from="961869114#0" to="130889758#6"/>
    <trip id="28" depart="28.00" from="-297382769#6" to="438958617#9"/>
    <trip id="29" depart="29.00" from="50799606#0" to="-6057581#6"/>
    <trip id="30" depart="30.00" from="-321444899#2" to="1060936417"/>
    <trip id="31" depart="31.00" from="864614823#0" to="50429929"/>
    <trip id="32" depart="32.00" from="-397318410#1" to="-589539522#2"/>
    <trip id="33" depart="33.00" from="-352412083" to="-296365351#6"/>
    <trip id="34" depart="34.00" from="514191882#0" to="-468450553#1"/>
    <trip id="35" depart="35.00" from="397318415#0" to="203119343"/>
    <trip id="36" depart="36.00" from="-476103813#1" to="49999716#3"/>
    <trip id="37" depart="37.00" from="-397327939#1" to="466349883"/>
    <trip id="38" depart="38.00" from="-397316522" to="131052508#3"/>
    <trip id="39" depart="39.00" from="-50799230#8" to="-6057581#6"/>
</routes>
