<?xml version="1.0" encoding="UTF-8"?>

<!-- generated on 2022-10-26 03:15:10 by Eclipse SUMO duarouter Version 1.10.0
	<routes>

    <input>
        <net-file value="/Users/nafiulhassan/veins-5.1/examples/veins/input/washingtondc/30/washingtondc.net.xml"/>
        <route-files value="/Users/nafiulhassan/veins-5.1/examples/veins/input/washingtondc/seed-9/100/washingtondc.trips.xml"/>
    </input>

    <output>
        <output-file value="/Users/nafiulhassan/veins-5.1/examples/veins/input/washingtondc/seed-9/100/washingtondc.rou.xml"/>
        <alternatives-output value="/Users/nafiulhassan/veins-5.1/examples/veins/input/washingtondc/seed-9/100/washingtondc.rou.alt.xml"/>
    </output>

    <report>
        <ignore-errors value="true"/>
    </report>

</configuration>
-->

	<routes>
	<vehicle id="0" depart="0.00">
        <route edges="297273916#2 297285722#0 297294784#0 513235538#0 297294791#0 297294792#0 589905511#0 120478695#0 120478695#3 120478695#4 120478695#5 468441885#0 468441885#2 202992519#0 -6057595#2 29961175#0 155011691#0 421037430#0 130788227#0 130788227#2"/>
    </vehicle>
	<vehicle id="1" depart="0.00">
        <route edges="-397363850#2 397363850#1 854143897#0 397327118#0 131520206#0 509325421 50799689#0 -321444900 -648026207#1 -333922462#1 333922526#0 333922526#2 347003329#0 589539518#0"/>
    </vehicle>
	<vehicle id="2" depart="0.00">
        <route edges="-125568108#2 -125568108#1 -130788190 -130788195 435424520#0 -420781368#1 -920893151#1 -6057581#6 -6057581#5 -6057581#4 -6057581#3 -6057581#2 -6057581#1 954271698#0 988196201#0 29961175#0"/>
    </vehicle>
	<vehicle id="3" depart="0.00">
        <route edges="6054355#0 -423602679 6053702#0 6053702#2 6053702#3 509326344#0 6054254#0 50431292#0 6057417#0 6056366#0 6056366#3 130889756#0 130889756#3 130889756#5 130889756#7 130889757#0 698748857#0 589539536#0 589539536#2 589539536#3 589539536#4 590581668#0 590581668#2 1049842802#0 1049842803 1049842804 589539534#0 1049287312#0 1049287312#2 126303354#0 126303354#2 345709542#0 1048676964#0 298848145#0 1047793071 298814315#0 508158270#0 421268132#0 439875857#0 590598870#0 509326776#0 650605162 6062204 988196201#0 29961175#0 -29961175#1"/>
    </vehicle>
	<vehicle id="4" depart="0.00">
        <route edges="397317307#0 297444235#0 297444228#0 297759292#0 297759292#1 409546597 130285135#0 -333922782#1 -333922765#2 -347003329#2 -333922526#3 -333922526#1 333922462#0 648026207#0 321444900 321444898 321444899#0 130788192#0 130788195 -435424521#1 435424521#0"/>
    </vehicle>
	<vehicle id="5" depart="0.00">
        <route edges="-202992520#8 -202992520#7 -202992520#6 -202992520#4 -202992520#2 -6057595#2 -988196201#2 -6062204 6062876#0 509325421 468450542 130285122#0 126303355#0 347003228#0 347003229#0 347003229#2 589551073#0 1051018092#0 345633934 1051018093#0 589539535#0 589533502#0 468434122#0 468434122#2 695842775 469157093 469157092 468434120#0 345633936#0 466349886#0 466349886#2 466349886#3 130802362#0 130802362#1"/>
    </vehicle>
	<vehicle id="6" depart="0.00">
        <route edges="476103806 476103801 321477125#6 520537743#0 520537743#1 354436361#0 354436361#1 354436361#2 583698434 583698432 520537744 520537746 583705854 535520845#0 535520845#1 535520845#2 352412093#0 -352411913#1 -354202945#1 476103809#0 298832254#0 298832261#0 126303356#0 476103811 476103813#0 298815729#0 352412039#0 47920785#0 352412073 509646034#0 434444693#0 130788155#0 131520206#0 252140542#0 252140542#3"/>
    </vehicle>
	<vehicle id="8" depart="0.00">
        <route edges="-575569267#16 -575569267#14 -575569267#12 -125568108#4 -125568108#2 -125568108#1 -130788190 -130788195 -130788192#2 -321444899#2 -321444898 321444902#0 321444902#3 354079209#0 987879163#0 508158268 987879162#0 -397316204#2 -397316195#1 -397316186#1 -397316180#1 -397316171"/>
    </vehicle>
	<vehicle id="9" depart="0.00">
        <route edges="321444902#3 -130927087#2 50260020#0 50260020#2 50260020#4 50260020#6 -297382770#5 589539519#0 6057812#0"/>
    </vehicle>
	<vehicle id="10" depart="0.00">
        <route edges="409551582 50009629#0 48018648#0 468469915#0 468469915#1 130772931#1 575569268 130772928#0 121863780#0 121863780#1 988487224#0 48018630 988487225#0 130889704#0 130889704#1 837279711#0 837279711#2 837279711#4 1051205229#0 1051205229#1 130889702#0 130889702#3 130889702#4 1052908775#0 130889705#0 130889705#2 697824964#0 454815093#0 696806633#0 696806633#2 935806772#0 935806772#2 1054633206#0 237743944#0 237743944#2 1049235346#0 130889700#0 468434114#0 468434113#0 468434113#1 468434113#2 50524890#5 50524890#8"/>
    </vehicle>
	<vehicle id="11" depart="0.00">
        <route edges="130889749#2 397316524#0 -397316524#1 -130889749#2 -130889749#1 130927087#0 468433793#0 354079210 468433792#0 347003228#0 347003229#0 347003229#2 589551073#0 1051018092#0 345633934 1051018093#0 589539535#0 589533502#0 468434122#0 468434122#2 695842775 469157093 469157092 1048252755#0 589533511 520537739 -421076402 -509325914 -476103805 -476103806 50429594"/>
    </vehicle>
	<vehicle id="12" depart="0.00">
        <route edges="-352412093#2 -421061860 126303364 323742932 -126303366#1 469165486#0 469165487 469165488#0 -469165489#1 -469165490#1 -537114618#10 -537114618#8 -537114618#5 -537114618#4 -537114618#2 -537114618#1 -468434115#1 -923370378#11 -923370378#9 -923370378#7 -923370378#6 -923370378#4 -923370378#2 -923370378#0"/>
    </vehicle>
	<vehicle id="13" depart="0.00">
        <route edges="468469915#0 468469915#1 130772931#1 575569268 130772928#0 121863780#0 121863780#1 988487224#0 48018630 988487225#0 130889704#0 130889704#1 837279711#0 468433797#0 468433797#3 49299976"/>
    </vehicle>
	<vehicle id="14" depart="0.00">
        <route edges="131076097#1 -297380210#3 -297380210#1 -589539518#3 -589539518#1 -347003329#2 -333922526#3 -333922526#1 333922462#0 -333922462#1"/>
    </vehicle>
	<vehicle id="15" depart="0.00">
        <route edges="-6057581#5 6057581#5 6057581#6 920893151#0 397327118#0 131520206#0 509325421 468450542 130285122#0 126303355#0 347003228#0 347003229#0 347003229#2 589551073#0 1051018092#0 345633934 1051018093#0 589539535#0 589533502#0 468434122#0 468434122#2 695842775 469157093 469157092 468434120#0 345633935#0 50799230#0 -50799230#1"/>
    </vehicle>
	<vehicle id="16" depart="0.00">
        <route edges="-648026207#1 648026207#0 321444900 321444898 130285122#0 126303355#0 347003228#0 347003229#0 347003229#2 589551073#0 1051018092#0 345633934 1051018093#0 589539535#0 -130908283#4 -130908283#2 -130908283#1 520532361#0 520532355#0"/>
    </vehicle>
	<vehicle id="17" depart="0.00">
        <route edges="-496467787#1 496467785#0 985426724 468436769#0 6056069#0 589533583#0 589539536#0 589539536#2 589539536#3 589539536#4 590581668#0 590581668#2 1049842802#0 1049842803 1049842804 589539534#0 1049287312#0 1049287312#2 126303354#0 126303354#2 345709542#0 1048676964#0 298848145#0 1047793071 298814315#0 508158270#0 421268132#0 439875857#0 590598870#0"/>
    </vehicle>
	<vehicle id="18" depart="0.00">
        <route edges="589905639 509325916 476103804 476103801 321477125#6 520537743#0 520537743#1 354436361#0 354436361#1 354436361#2 583698434 583698432 520537744 520537746 583705854 535520845#0 535520845#1 535520845#2 352412093#0 -352411913#1 -354202945#1 476103809#0 298832254#0 298832261#0 126303356#0 476103811 476103813#0 298815729#0 352412039#0 47920785#0 352412073 509646034#0 434444693#0 130788192#0 435424520#0 -420781368#1 -920893151#1 -6057581#6 -6057581#5 -6057581#4 -6057581#3 -6057581#2 -6057581#1 -6056532#2 50710195#0 50710195#2 297296762#0 -292148140#4"/>
    </vehicle>
	<vehicle id="19" depart="0.00">
        <route edges="130889702#3 130889702#4 1052908775#0 983121554#4 983121554#6 983121554#7 983121554#9 469159256#0 469159256#3 469159259 469159258#0 469159258#1 469159258#2 468469919#0 468469927#0 468469927#2 460536376#0 468469923#0 468469931#0 -126303361#4 -126303361#1 -421077027 -723610179 -468433795#1 -203119342#1 -397327121#1 -468433796 -397327124#1 298848145#0 1047793071 298814315#0"/>
    </vehicle>
	<vehicle id="20" depart="0.00">
        <route edges="-130889749#1 130927087#0 421268132#0 439875857#0 590598870#0 509326776#0 650605162 6062204 988196201#0 29961175#0 155011691#0 50710195#0 50710195#2 297296762#0 131052515"/>
    </vehicle>
	<vehicle id="21" depart="0.00">
        <route edges="6055749#1 983121554#7 983121554#9 469159256#0 469159256#3 469159259 469159258#0 469159258#1 469159258#2 468469919#0 468469927#0 468469927#2 460536376#0 468469923#0 468469931#0 -126303361#4 -126303361#1 -421077027 -723610179 -468433795#1 -203119342#1 -397327121#1 -468433796 -397327124#1 -347003327#2 -397316204#2 -397316195#1 -397316186#1 -397316180#1"/>
    </vehicle>
	<vehicle id="22" depart="0.00">
        <route edges="421075190#3 543909823#0 985426725#0 985426724 468436769#0 6056069#0 589533583#0 589539536#0 589539536#2 589539536#3 589539536#4 590581668#0 590581668#2 1049842802#0 1049842803 1049842804 589539534#0 1049287312#0 1049287312#2 126303354#0 126303354#2 345709542#0 1048676964#0 298848145#0 130285121#0 508158271 508158272#0 50260020#0 50260020#2 50260020#4 50260020#6 -297382770#5 -297382770#2 397321704#0 397321703#0 -397329578#2 -397329580#1 -6054886#1 -397329577#1 -397321698#2"/>
    </vehicle>
	<vehicle id="23" depart="0.00">
        <route edges="397327936#0 397327937#0 -397327937#1 -397327936#1 589905511#0 120478695#0 120478695#3 120478695#4 120478695#5 468441885#0 468441885#2 202992519#0 -6057595#2 -988196201#2 -6062204 6062876#0 509325421 468450542 130285122#0 126303355#0 347003228#0 347003229#0 347003229#2 589551073#0 1051018092#0 345633934 1051018093#0 589539535#0 589533502#0 469165486#0 469165487 469165488#0 -469165489#1 -469165490#1 -537114618#10 -537114618#8 -537114618#5 -537114618#4 -537114618#2 -537114618#1 -468434115#1 -923370378#11 -923370378#9 -923370378#7 -923370378#6 -923370378#4 6054252#0"/>
    </vehicle>
	<vehicle id="24" depart="0.00">
        <route edges="-50422161 998338690#6 47916248#0 397363850#1 130802361#0 125568108#0 125568108#2 125568108#3 -125568108#4"/>
    </vehicle>
	<vehicle id="25" depart="0.00">
        <route edges="-305660797#1 -305660797#0 -1054351818#1 -175873836#2 130802372#0 130802372#3 589551073#0 1051018092#0 345633934 1051018093#0 589539535#0 589533502#0 468434122#0 468434122#2 695842775 469157093 469157092 1048252755#0 589533511 520537739 352412106"/>
    </vehicle>
	<vehicle id="26" depart="0.00">
        <route edges="-130788192#2 -321444899#2 130285122#0 126303355#0 347003228#0 347003229#0 347003229#2 589551073#0 1051018092#0 345633934 1051018093#0 589539535#0 589533502#0 469165486#0 469165487 469165488#0 -469165489#1 -469165490#1 -305660797#4"/>
    </vehicle>
	<vehicle id="27" depart="0.00">
        <route edges="29961168#0 397321700#0 297368625#0 297368625#3 397321698#0 397321701#0 130802376#0 589551086#0 29961175#0 155011691#0 6056532#0 6057581#0 6057581#2 6057581#3 6057581#4"/>
    </vehicle>
	<vehicle id="29" depart="0.00">
        <route edges="466349884 1049230589 1049226223#0 1049226223#1 696737929#0 696737929#1 696737929#2 130802360#0 130802360#1 469159255 353283535#0 353283535#2 469159257#0 469159256#0 469159256#3 469159259 469159258#0 469159258#1 469159258#2 468469919#0 468469927#0 468469927#2 460536376#0 468469923#0 468469931#0 468469935#0 468469935#2 468469943#0 535546520#0 535546520#3 347003226 -347003226"/>
    </vehicle>
	<vehicle id="30" depart="0.00">
        <route edges="397327938 -397327938 -397327939#1 -397327932#1 -397327934#2 -397318412#1 -397318414#1 -397318410#1 -397318411#1 397318416#0 397318415#0 397318413 468433794 436271294#0 409541717 50799606#0 397319279#0 397319282#0 397319286#0 -305368640#1 -998360408#3 -998360408#0 -397304550 -120478418#2 -468434116#1"/>
    </vehicle>
	<vehicle id="32" depart="0.00">
        <route edges="-274296704#1 -1054351818#1 421259825#0 -397316204#2 -397316195#1 -397316186#1 397316186#0"/>
    </vehicle>
	<vehicle id="33" depart="0.00">
        <route edges="423615732#0 998360408#0 998360408#1 397315033#0 -126303362#1 -130802371#2 -397303092#2 -397303090#1 -175873836#2 130802372#0 130802372#3 589551073#0 1051018092#0 345633934 1051018093#0 6060903#0 6060903#2 6060903#3 520532363 -121980352 -436136927#8 -436136927#6 -436136927#5 -436136927#4 -436136927#2"/>
    </vehicle>
	<vehicle id="34" depart="0.00">
        <route edges="-6057595#2 29961175#0 155011691#0 6056532#0 6057581#0 6057581#2 6057581#3 6057581#4 6057581#5 6057581#6 920893151#0 420781368#0 435424521#0 308739814#0 435424522#0 435424522#2 435424522#4 48018661#0 130772931#1 575569268 130772928#0 121863780#0 121863780#1 988487224#0 988487222 988487223"/>
    </vehicle>
	<vehicle id="35" depart="0.00">
        <route edges="998338690#0 998338690#6 47916249#0 45838762#1 971624710 29961183#0 29961183#2 29961183#4 397321704#0 397321703#0 -397329578#2 -397329580#1 -6054886#1 -397329577#1 -397321698#2"/>
    </vehicle>
	<vehicle id="36" depart="0.00">
        <route edges="476103811 -352412083 -126303356#1 -298832261#2 -298832254#2 -476103809#1 354202945#0 50429913 436136929#2-AddedOnRampEdge 436136929#2 438964976#0 520537749-AddedOnRampEdge 520537749 466359342#0 466359342#3 454815093#0 696806633#0 696806633#2 935806772#0 935806772#2 1054633206#0 237743944#0 237743944#2 1049235346#0 130889700#0 468434114#0 468434113#0 468434113#1 468434113#2 50524890#5 6061544 -589533512#0 696806632#0"/>
    </vehicle>
	<vehicle id="37" depart="0.00">
        <route edges="-575569267#12 -125568108#4 -125568108#2 -125568108#1 -130788190 -130788195 -130788192#2 -321444899#2 130285122#0 126303355#0 347003228#0 347003229#0 347003229#2 589551073#0 1051018092#0 345633934 1051018093#0 589539535#0 589533502#0 469165486#0 469165487 469165488#0 -469165489#1 -469165490#1 -537114618#10 -537114618#8 -537114618#5 -537114618#4 -537114618#2 6062881#0 985067151 130285133#0-AddedOnRampEdge 130285133#0 6056363#0 6056363#2 6056363#3 130889760#0 131463018#0 6058077#0 583695032 397321711#1 397321711#2 509640269 920636360#0 423607087 1008299672 423608853"/>
    </vehicle>
	<vehicle id="38" depart="0.00">
        <route edges="-202992524#2 202992524#0 202992524#3 202992524#5 -252140542#2 509325421 468450542 130285122#0 126303355#0 347003228#0 347003229#0 347003229#2 589551073#0 1051018092#0 345633934 1051018093#0 589539535#0 589533502#0 468434122#0 468434122#2 695842775 469157093 469157092 468434120#0 345633936#0 466349886#0 466349886#2 466349886#3 130788167#0"/>
    </vehicle>
	<vehicle id="39" depart="0.00">
        <route edges="468469915#0 48018646#0 48018646#2 1052604510#0 -435424522#5 -435424522#3 -435424522#1 -308739814#1 -435424521#1 -420781368#1 -920893151#1 -6057581#6 -6057581#5 -6057581#4 -6057581#3 -6057581#2 -6057581#1 45838762#1 971624710 29961183#0 29961183#2 29961183#4 397321704#0 397321703#0 -397329578#2 -397329580#1 397329580#0"/>
    </vehicle>
	<vehicle id="40" depart="0.00">
        <route edges="50797098#8 130889756#7 130889757#0 698748857#0 589539536#0 589539536#2 589539536#3 589539536#4 590581668#0 590581668#2 1049842802#0 1049842803 1049842804 589539534#0 1049287312#0 1049287312#2 126303354#0 126303354#2 345709542#0 1048676964#0 298848145#0 1047793071 298814315#0 508158270#0 421268132#0 439875857#0 590598870#0 321444898 321444899#0 -321444899#2"/>
    </vehicle>
	<vehicle id="41" depart="0.00">
        <route edges="126303366#0 126303365 323742930#0 323742931 126303364 323742932 -126303366#1 468434122#0 468434122#2 695842775 469157093 583698433#0 6056069#0 589533583#0"/>
    </vehicle>
	<vehicle id="42" depart="0.00">
        <route edges="397329578#0 131076063#0 589539520#0 -333922526#3 -333922526#1 333922462#0 648026207#0 321444900 509326776#0 252140542#0"/>
    </vehicle>
	<vehicle id="43" depart="0.00">
        <route edges="130908289#5 130908289#6 130908289#7 50797098#3 50797098#6 50797098#8 130889756#7 130889757#0 698748857#0 589539536#0 589539536#2 589539536#3 589539536#4 -469165488#1 -469165487 -469165486#1 126303366#0 126303365 352412093#0 -438964977 -466359338#3 -466359338#1 -983121554#11 -983121554#7 -983121554#6 983121554#6"/>
    </vehicle>
	<vehicle id="44" depart="0.00">
        <route edges="397327121#0 203119342#0 468433795#0 723610179 298815729#0 352412039#0 47920785#0 352412073 509646034#0 434444693#0 130788192#0 130788195 -130788195"/>
    </vehicle>
	<vehicle id="45" depart="0.00">
        <route edges="520463951#0 520463951#2 48018661#0 130772931#1 575569268 130772928#0 121863780#0 121863780#1 988487224#0 48018630 988487225#0 130889704#0 130889704#1 837279711#0 837279711#2 837279711#4 1051205229#0 1051205229#1 130889702#0 130889702#3 1052908774#0"/>
    </vehicle>
	<vehicle id="46" depart="0.00">
        <route edges="202992520#8 -202992520#8 -202992520#7 -202992520#6 -202992520#4 -202992520#2 -6057595#2 -988196201#2 -6062204 6062876#0 509325421 468450542 130285122#0 126303355#0 347003228#0 347003229#0 347003229#2 589551073#0 1051018092#0 345633934 1051018093#0 589539535#0 589533502#0 468434122#0 468434122#2 695842775 469157093 469157092 1048252755#0 589533511 520537739 -421076402 -509325914"/>
    </vehicle>
	<vehicle id="47" depart="0.00">
        <route edges="237743944#2 1049235346#0 130908291#0 1049226224#0 1049226223#0 1049226223#1 696737929#0 696737929#1 696737929#2 130802360#0 130802360#1 469159255 353283535#0 353283535#2 469159257#0 469159256#0 469159256#3 469159259 469159258#0 469159258#1 469159258#2 468469919#0 -468433803 -468433804 -130908282 -438960035#1 -468433805 -468433806#1 1051018092#0 345633934 1051018093#0"/>
    </vehicle>
	<vehicle id="48" depart="0.00">
        <route edges="-333922526#1 -50260020#7 -50260020#5 -50260020#3 -50260020#1 130927087#0 468433793#0 354079210 468433792#0 347003228#0 347003229#0 347003229#2 589551073#0 1051018092#0 345633934 1051018093#0 589539535#0 589533502#0 468434122#0 468434122#2 695842775 469157093 469157092 468434120#0 345633935#0 345633935#3 345633935#5 438958617#9"/>
    </vehicle>
	<vehicle id="49" depart="0.00">
        <route edges="-352412106 352412106 521221938 521198981 203119343 50429924 583698432 520537744 520537746 583705854 535520845#0 535520845#1 535520845#2 352412093#0 -352411913#1 -354202945#1 476103809#0 298832254#0 298832261#0 126303356#0 476103811 476103813#0 298815729#0 352412039#0 47920785#0 352412073 509646034#0 434444693#0 130788155#0 131520206#0 509325421 50799689#0"/>
    </vehicle>
	<vehicle id="50" depart="0.00">
        <route edges="-130908059#2 130908059#0 120478695#0 120478695#3 120478695#4 120478695#5 468441885#0 468441885#2 202992519#0 -6057595#2 -988196201#2 -6062204 6062876#0 509325421 468450542 130285122#0 126303355#0 347003228#0 347003229#0 347003229#2 589551073#0 1051018092#0 345633934 1051018093#0 589539535#0 589533502#0 468434122#0 468434122#2 695842775 469157093 469157092 468434120#0 345633935#0 50799230#0 50799230#2 50799230#4"/>
    </vehicle>
	<vehicle id="51" depart="0.00">
        <route edges="520537739 589905634 466349884 1049230589 1049226223#0 1049226223#1 696737929#0 696737929#1 696737929#2 130802360#0 130802360#1 469159255 353283535#0 353283535#2 469159257#0 469159256#0 469159256#3 469159259 469159258#0 469159258#1 469159258#2 468469919#0 468469927#0 468469927#2 460536376#0 298832235#0 298832235#3"/>
    </vehicle>
	<vehicle id="52" depart="0.00">
        <route edges="47916246#2 -47916246#3 -47916246#1 -589551087#2"/>
    </vehicle>
	<vehicle id="53" depart="0.00">
        <route edges="50428539#0 50428539#2 50428539#3 50428539#5 50428539#6 509326253#0 687108617#0 435106239#0 469154542 6057417#0 6056366#0 6056366#3 130889756#0 130889756#3 130889756#5 130889756#7 130889757#0 698748857#0 589539536#0 589539536#2 589539536#3 589539536#4 590581668#0 590581668#2 1049842802#0 1049842803 1049842804 589539534#0 1049287312#0 1049287312#2 126303354#0 126303354#2 345709542#0 1048676964#0 298848145#0 130285121#0 508158271 508158272#0 50260020#0 50260020#2 50260020#4 50260020#6 -297382770#5 -297382770#2 397321704#0 397321703#0 131076063#0"/>
    </vehicle>
	<vehicle id="54" depart="0.00">
        <route edges="-535718852#1 535718852#0 45838763#0 397316203#0 70948803#0 397316176#0 397316171 397316180#0 397316186#0 397316195#0 397316204#0 347003327#0 397327124#0 468433796 397327121#0 347003229#0 347003229#2 589551073#0 1051018092#0 345633934 1051018093#0 589539535#0 589533502#0 126303366#0 126303365 6058797 520537749-AddedOnRampEdge 520537749 466359342#0 466359342#3 837279713#0"/>
    </vehicle>
	<vehicle id="55" depart="0.00">
        <route edges="130908289#11 921887474#0 496467785#0 985426724 468436769#0 6056069#0 589533583#0 589539536#0 589539536#2 589539536#3 589539536#4 590581668#0 590581668#2 1049842802#0 1049842803 1049842804 589539534#0 1049287312#0 1049287312#2 126303354#0 126303354#2 345709542#0 1048676964#0 298848145#0 1047793071 298814315#0 508158270#0 421268132#0 439875857#0 590598870#0 509326776#0 650605162 6062204 988196201#0 29961175#0 155011691#0 421037430#0 130788227#0"/>
    </vehicle>
	<vehicle id="56" depart="0.00">
        <route edges="589533563#0 -347003329#2 -333922526#3 -333922526#1 333922462#0 648026207#0 321444900 321444898 321444899#0 -434444693#2 516085385 509646035#0 509646035#2 130788204#0"/>
    </vehicle>
	<vehicle id="57" depart="0.00">
        <route edges="468450580#0 509645504#1 509645504#2 297444228#0 297759292#0 297759292#1 409546597 130285135#0 397319284#0 397319281#0 421734517#0 298814317#0 -347003330#3 347003328#0 -397303092#2 -397303090#1 -175873836#2 130802372#0 130802372#3 589551073#0 468433806#0 468433805 438960035#0 -438960035#1 -468433805 -468433806#1"/>
    </vehicle>
	<vehicle id="58" depart="0.00">
        <route edges="583698432 520537744 520537746 583705854 535520845#0 535520845#1 323742932 -126303366#1 469165486#0 469165487 469165488#0 -469165489#1 -469165490#1 -537114618#10 -537114618#8 -537114618#5 -537114618#4 -537114618#2 6062881#0 985067151 130285133#0-AddedOnRampEdge 130285133#0 6056363#0 6056363#2 6056363#3 203119341#0 696806636#0 696806637#0 130908292#0 130908292#2 130908292#3 -6053702#4 -6053702#2 -6053702#1 469151751 -6054355#1"/>
    </vehicle>
	<vehicle id="59" depart="0.00">
        <route edges="-252140542#2 509325421 468450542 130285122#0 126303355#0 347003228#0 347003229#0 347003229#2 589551073#0 1051018092#0 345633934 1051018093#0 589539535#0 589533502#0 469165486#0 469165487 469165488#0 -469165489#1 -469165490#1 -537114618#10 -537114618#8 -537114618#5 -537114618#4 -537114618#2 -537114618#1 -468434115#1 -923370378#11 -923370378#9 -923370378#7 923370378#7"/>
    </vehicle>
	<vehicle id="60" depart="0.00">
        <route edges="-468434116#1 6062397#0 6063274#0 1049303874#0 130889755#0 130889756#0 130889756#3 130889756#5 130889756#7 130889757#0 698748857#0 589533584#0 695842776#0 695842776#1"/>
    </vehicle>
	<vehicle id="61" depart="0.00">
        <route edges="983121554#6 983121554#7 983121554#9 469159256#0 469159256#3 469159259 436136927#5 436136927#6 436136927#7 121980352 -520532363 -6060903#4 -6060903#2 -6060903#1 469165492#0 469165492#2 1049287312#0 1049287312#2 126303354#0 126303354#2 175873836#0 397303090#0 -397303090#1 421259825#0"/>
    </vehicle>
	<vehicle id="62" depart="0.00">
        <route edges="-126303366#1 469165486#0 469165487 469165488#0 590581668#0 590581668#2 1049842802#0 1049842803 1049842804 589539534#0 1049287312#0 1049287312#2 126303354#0 126303354#2 345709542#0 1048676964#0 298848145#0 130285121#0 508158271 508158272#0 130889749#0 130889749#2 397316524#0 -397316522 347003330#4 589533563#0 589539518#0 589539518#2 297380210#0 297380210#2 589539537#0 397327934#0 397327932#0 397327939#0 397327938 397327933 397327935#0 397327936#0 397327937#0 -6059107#6 -6059107#3 131052386#6 -296365924#2"/>
    </vehicle>
	<vehicle id="63" depart="0.00">
        <route edges="-50511365#7 50511365#6 -130788227#3 -130788227#1 -421037430#2 6056532#0 45838762#1 971624710 6062876#0 509325421 50799689#0 321444902#0 321444902#3 -130927087#2 130889749#0 130889749#2"/>
    </vehicle>
	<vehicle id="64" depart="0.00">
        <route edges="435424522#2 435424522#4 479469615#0 535546520#0 535546520#3 347003226 -352412039#1 50429905 924793627#0-AddedOnRampEdge 924793627#0 108060074#0 864614824#0"/>
    </vehicle>
	<vehicle id="65" depart="0.00">
        <route edges="130285138#0 466349886#0 321477125#3 321477125#4 321477125#5 321477125#6 50429927 421076402 -421076402"/>
    </vehicle>
	<vehicle id="66" depart="0.00">
        <route edges="397319279#0 70948803#0 397316176#0 397316171 397316180#0 397316186#0 397316195#0 397316204#0 74100353#0 508158273 508158270#0 421268132#0 439875857#0 590598870#0 321444898 321444899#0 130788192#0 435424520#0 -420781368#1 -854143897#2 -397363850#2 -397363850#0"/>
    </vehicle>
	<vehicle id="67" depart="0.00">
        <route edges="-321444899#2 -321444898 321444902#0 321444902#3 354079209#0 987879163#0 508158268 987879162#0 -397316204#2 -397316195#1 -397316186#1 397316186#0 397316195#0"/>
    </vehicle>
	<vehicle id="68" depart="0.00">
        <route edges="469165490#0 469165490#2 590581668#0 590581668#2 1049842802#0 1049842803 1049842804 589539534#0 1049287312#0 1049287312#2 126303354#0 126303354#2 345709542#0 1048676964#0 298848145#0 1047793071 298814315#0 508158270#0 421268132#0 439875857#0 590598870#0 509326776#0 650605162 6062204 988196201#0 6057595#0 -202992519#2 -297296751#2"/>
    </vehicle>
	<vehicle id="69" depart="0.00">
        <route edges="292148139#0 -202992520#2 -6057595#2 -988196201#2 -6062204 6062876#0 509325421 468450542 130285122#0 126303355#0 347003228#0 347003229#0 347003229#2 589551073#0 1051018092#0 345633934 1051018093#0 6060903#0 -6060903#1 469165492#0 469165492#2"/>
    </vehicle>
	<vehicle id="70" depart="0.00">
        <route edges="50524889#10 50524889#15 50524889#17 576620616 466349886#0 466349886#2 466349886#3 130788167#0 130788167#1 -589533512#3 -589533512#0 696806632#0 130889700#0"/>
    </vehicle>
	<vehicle id="71" depart="0.00">
        <route edges="6052391#0 983121553#3 469165485#0 442066186#0 353283535#0 353283535#2 469159257#0 469159256#0 469159256#3 469159259 469159258#0 469159258#1 469159258#2 468469919#0 -468433803"/>
    </vehicle>
	<vehicle id="72" depart="0.00">
        <route edges="48018639#0 988487225#0 130889704#0 130889704#1 837279711#0 837279711#2 837279711#4 1051205229#0 1051205229#1 130889702#0 130889702#3 130889702#4 1052908775#0 130889705#0 130889705#2 697824964#0 454815093#0 696806633#0 696806633#2 935806772#0 935806772#2 1054633206#0 237743944#0 237743944#2 1049235346#0 130889700#0 -130788167#2 -130788167#0 50524890#1"/>
    </vehicle>
	<vehicle id="73" depart="0.00">
        <route edges="590581593#0 -590581593#1 -297380211#8 -297380211#6 514191883#0 -120478695#2 397329575#0 397329570 397329572#0 297380214#0 297380214#3 -297380210#3 -297380210#1 -589539518#3 -589539518#1 -589533563#2 -347003330#6 -298814317#2 468433794 436271294#0 409541717 535780677#0 535780677#2 298825115#0"/>
    </vehicle>
	<vehicle id="74" depart="0.00">
        <route edges="-352411913#1 352411913#0 -352412093#2 -421061860 126303364 323742932 -126303366#1 468434122#0 468434122#2 695842776#0 695842776#1 520537745 466349883 583705856#0 583705856#1 50429925 352412100 -203119343"/>
    </vehicle>
	<vehicle id="75" depart="0.00">
        <route edges="347003330#4 -347003330#6 -347003330#3 347003328#0 -397303092#2 -397303090#1 -175873836#2 130802372#0 130802372#3 589551073#0 1051018092#0 345633934 1051018093#0 589539535#0 589533502#0 468434122#0 468434122#2 695842775 469157093 583698433#0 -468436769#1"/>
    </vehicle>
	<vehicle id="76" depart="0.00">
        <route edges="442066186#0 353283534#0 353283534#1 323742931 126303364 323742932 -126303366#1 469165486#0 469165487 469165488#0 -469165489#1 -469165490#1 -305660797#4"/>
    </vehicle>
	<vehicle id="77" depart="0.00">
        <route edges="508158268 508158271 508158272#0 50260020#0 50260020#2 70948801#3 439875857#0 590598870#0 509326776#0 650605162 6062204 988196201#0 6057595#0 202992520#2 202992520#3 520468342 520468343#0 -520468343#1"/>
    </vehicle>
	<vehicle id="78" depart="0.00">
        <route edges="-130772954 -126303361#7 468469935#0 468469935#2 468469943#0 468469939#0 468469946#0 200019461#0 435424520#0 -420781368#1 -920893151#1 -6057581#6 -6057581#5 -6057581#4 -6057581#3 -6057581#2 -6057581#1 954271698#0 988196201#0 6057595#0 -202992519#2 -468441158#1 -468441885#1"/>
    </vehicle>
	<vehicle id="79" depart="0.00">
        <route edges="296365351#5 296365351#6 514191882#0 514191883#0 -120478695#2 397329575#0 397329570 397329572#0 297380214#0 297380214#3 -297380210#3 -297380210#1 297444238#0 542269314#0 509649677 397317304"/>
    </vehicle>
	<vehicle id="80" depart="0.00">
        <route edges="130889758#0 130889758#2 130889758#3 130889758#4 130889758#6 130889758#10 130889758#12 696806633#0 696806633#2 590605528#0 590605528#2 590605528#3 696737929#0 696737929#1 696737929#2 130802360#0 130802360#1 469159255 353283534#0 353283534#1 323742931 126303364 323742932 -126303366#1 469165486#0 469165487 469165488#0 -469165489#1 -469165490#1 -537114618#10 -537114618#8 -537114618#5 -537114618#4 -537114618#2 -537114618#1 -468434115#1 -923370378#11 -923370378#9 -923370378#7 -923370378#6 -923370378#4 -923370378#2 -923370378#0 -6055551#1 -468434116#1"/>
    </vehicle>
	<vehicle id="81" depart="0.00">
        <route edges="297401522#0 854143897#0 397327118#0 131520206#0 509325421 468450542 130285122#0 126303355#0 347003228#0 347003229#0 347003229#2 589551073#0 1051018092#0 345633934 1051018093#0 589539535#0 589533502#0 468434122#0 468434122#2 695842776#0 695842776#1"/>
    </vehicle>
	<vehicle id="82" depart="0.00">