<?xml version="1.0" encoding="UTF-8"?>
<!-- generated on 2022-10-26 03:16:27.474804 by $Id$ UNKNOWN
  options: -n /Users/nafiulhassan/veins-5.1/examples/veins/input/washingtondc/30/washingtondc.net.xml -s 28 -e 120 -o /Users/nafiulhassan/veins-5.1/examples/veins/input/washingtondc/seed-28/120/washingtondc.trips.xml
-->
<routes xmlns:xsi="http://www.w3.org/2001/XMLSchema-instance" xsi:noNamespaceSchemaLocation="http://sumo.dlr.de/xsd/routes_file.xsd">
    <trip id="0" depart="0.00" from="-397316180#1" to="-397329570"/>
    <trip id="1" depart="1.00" from="421076400#0" to="-468450579#1"/>
    <trip id="2" depart="2.00" from="-397329572#1" to="296971737#0"/>
    <trip id="3" depart="3.00" from="131052512#2" to="-509325914"/>
    <trip id="4" depart="4.00" from="130889758#4" to="575569267#5"/>
    <trip id="5" depart="5.00" from="-397327939#1" to="-469165489#1"/>
    <trip id="6" depart="6.00" from="-130908283#2" to="-575569267#4"/>
    <trip id="7" depart="7.00" from="-347003227" to="983121554#0"/>
    <trip id="8" depart="8.00" from="1049287312#0" to="985426724"/>
    <trip id="9" depart="9.00" from="-397327937#1" to="6055383#0"/>
    <trip id="10" depart="10.00" from="321477125#0" to="469154544"/>
    <trip id="11" depart="11.00" from="468436769#0" to="-6057595#2"/>
    <trip id="12" depart="12.00" from="-537114618#10" to="468469915#0"/>
    <trip id="13" depart="13.00" from="-397329570" to="-130285136#2"/>
    <trip id="14" depart="14.00" from="50710195#2" to="439875858#4"/>
    <trip id="15" depart="15.00" from="-6056371#1" to="333922462#0"/>
    <trip id="16" depart="16.00" from="6056366#0" to="-6061944#3"/>
    <trip id="17" depart="17.00" from="-397321705#1" to="131052386#0"/>
    <trip id="18" depart="18.00" from="-468433799#0" to="130788192#0"/>
    <trip id="19" depart="19.00" from="-131052512#2" to="50511365#3"/>
    <trip id="20" depart="20.00" from="520532361#0" to="130788227#2"/>
    <trip id="21" depart="21.00" from="130889700#0" to="-6054255#6"/>
    <trip id="22" depart="22.00" from="696806637#0" to="589551086#0"/>
    <trip id="23" depart="23.00" from="468436769#0" to="-468441158#1"/>
    <trip id="24" depart="24.00" from="-468434115#1" to="50524889#0"/>
    <trip id="25" depart="25.00" from="-476103806" to="469154540#0"/>
    <trip id="26" depart="26.00" from="131076097#0" to="-131052297#9"/>
    <trip id="27" depart="27.00" from="-49299976" to="6057192#0"/>
    <trip id="28" depart="28.00" from="1052604510#0" to="468469890#0"/>
    <trip id="29" depart="29.00" from="50511365#6" to="130889759#2"/>
    <trip id="30" depart="30.00" from="29961183#4" to="589533518#3"/>
    <trip id="31" depart="31.00" from="49999716#2" to="333922526#0"/>
    <trip id="32" depart="32.00" from="397315033#0" to="203119345#0"/>
    <trip id="33" depart="33.00" from="146537585#0" to="468450542"/>
    <trip id="34" depart="34.00" from="-589539518#1" to="589539517#0"/>
    <trip id="35" depart="35.00" from="-983121553#2" to="-535718852#1"/>
    <trip id="36" depart="36.00" from="864614823#0" to="-130788158#1"/>
    <trip id="37" depart="37.00" from="130908292#0" to="397315035#3"/>
    <trip id="38" depart="38.00" from="203025090#2" to="535780677#0"/>
    <trip id="39" depart="39.00" from="468469904#0" to="29961183#2"/>
    <trip id="40" depart="40.00" from="-120478695#3" to="983121554#0"/>
    <trip id="41" depart="41.00" from="130788204#0" to="130772931#1"/>
    <trip id="42" depart="42.00" from="-514191882#1" to="-47916247#2"/>
    <trip id="43" depart="43.00" from="-352412100" to="-397329572#1"/>
    <trip id="44" depart="44.00" from="468469900#1" to="-958872539#4"/>
    <trip id="45" depart="45.00" from="323742930#0" to="468433791#0"/>
    <trip id="46" depart="46.00" from="-297380214#6" to="50511237#0"/>
    <trip id="47" depart="47.00" from="-47916247#2" to="520463951#2"/>
    <trip id="48" depart="48.00" from="6052416#0" to="24238018#2"/>
    <trip id="49" depart="49.00" from="1051018093#0" to="305660797#1"/>
    <trip id="50" depart="50.00" from="6054895#2" to="935806772#0"/>
    <trip id="51" depart="51.00" from="48018639#0" to="130908282"/>
    <trip id="52" depart="52.00" from="130908289#0" to="469159259"/>
    <trip id="53" depart="53.00" from="120478529#0" to="509325916"/>
    <trip id="54" depart="54.00" from="126303355#0" to="397321705#0"/>
    <trip id="55" depart="55.00" from="345633935#5" to="345633935#0"/>
    <trip id="56" depart="56.00" from="583695032" to="6052882#0"/>
    <trip id="57" depart="57.00" from="508158270#0" to="466349884"/>
    <trip id="58" depart="58.00" from="130908282" to="130889756#7"/>
    <trip id="59" depart="59.00" from="297273914#0" to="583705854"/>
    <trip id="60" depart="60.00" from="503185206" to="-333922766#3"/>
    <trip id="61" depart="61.00" from="-589539518#1" to="-296786737#1"/>
    <trip id="62" depart="62.00" from="1033847612#0" to="535546520#3"/>
    <trip id="63" depart="63.00" from="439875857#0" to="-130802371#2"/>
    <trip id="64" depart="64.00" from="50429923" to="435424521#0"/>
    <trip id="65" depart="65.00" from="297380214#0" to="-131052297#5"/>
    <trip id="66" depart="66.00" from="-130788190" to="-297380214#2"/>
    <trip id="67" depart="67.00" from="589551087#0" to="130908290#0"/>
    <trip id="68" depart="68.00" from="-296365351#2" to="520537743#1"/>
    <trip id="69" depart="69.00" from="297444238#0" to="125568108#2"/>
    <trip id="70" depart="70.00" from="130889759#0" to="-50511365#2"/>
    <trip id="71" depart="71.00" from="-131076063#2" to="509325421"/>
    <trip id="72" depart="72.00" from="590581668#2" to="126303365"/>
    <trip id="73" depart="73.00" from="397327932#0" to="589539520#0"/>
    <trip id="74" depart="74.00" from="-130907982#1" to="998338690#6"/>
    <trip id="75" depart="75.00" from="-397316204#2" to="130788227#0"/>
    <trip id="76" depart="76.00" from="-297294784#2" to="-50260020#1"/>
    <trip id="77" depart="77.00" from="-466352083#1" to="-6054255#2"/>
    <trip id="78" depart="78.00" from="292148139#0" to="454817812"/>
    <trip id="79" depart="79.00" from="29961168#0" to="50260020#4"/>
    <trip id="80" depart="80.00" from="695842776#1" to="-520463951#3"/>
    <trip id="81" depart="81.00" from="130772954" to="397327937#0"/>
    <trip id="82" depart="82.00" from="-50427058" to="-202992520#4"/>
    <trip id="83" depart="83.00" from="542269372#0" to="321444900"/>
    <trip id="84" depart="84.00" from="130802361#0" to="466352083#0"/>
    <trip id="85" depart="85.00" from="-6061944#3" to="130788207#4"/>
    <trip id="86" depart="86.00" from="-436136927#1" to="131463018#0"/>
    <trip id="87" depart="87.00" from="1049842804" to="397304549#0"/>
    <trip id="88" depart="88.00" from="589551086#0" to="508158268"/>
    <trip id="89" depart="89.00" from="468434120#0" to="397327938"/>
    <trip id="90" depart="90.00" from="589539517#0" to="-468433797#3"/>
    <trip id="91" depart="91.00" from="696806633#0" to="-466359338#1"/>
    <trip id="92" depart="92.00" from="590581593#0" to="298825115#0"/>
    <trip id="93" depart="93.00" from="476103809#0" to="924793627#0-AddedOnRampEdge"/>
    <trip id="94" depart="94.00" from="-131076063#2" to="1049230589"/>
    <trip id="95" depart="95.00" from="-397327121#1" to="1033847614#3"/>
    <trip id="96" depart="96.00" from="-590581593#3" to="468433799#1"/>
    <trip id="97" depart="97.00" from="575569267#3" to="-6054355#1"/>
    <trip id="98" depart="98.00" from="130908292#3" to="-397318411#1"/>
    <trip id="99" depart="99.00" from="-305368640#1" to="-468433791#1"/>
    <trip id="100" depart="100.00" from="-297294789#2" to="575569267#3"/>
    <trip id="101" depart="101.00" from="-983121553#1" to="468469935#2"/>
    <trip id="102" depart="102.00" from="50524889#3" to="-575569267#6"/>
    <trip id="103" depart="103.00" from="296365351#2" to="438958617#7"/>
    <trip id="104" depart="104.00" from="296355738#0" to="436136927#5"/>
    <trip id="105" depart="105.00" from="-298832235#2" to="589533518#3"/>
    <trip id="106" depart="106.00" from="987879163#0" to="864614823#0"/>
    <trip id="107" depart="107.00" from="513235538#0" to="397363850#1"/>
    <trip id="108" depart="108.00" from="-509646034#1" to="-382850737#1"/>
    <trip id="109" depart="109.00" from="203025089#2" to="-47916249#2"/>
    <trip id="110" depart="110.00" from="436136927#5" to="6061387#3"/>
    <trip id="111" depart="111.00" from="-6059107#6" to="397327939#0"/>
    <trip id="112" depart="112.00" from="-520468347#3" to="864614824#0"/>
    <trip id="113" depart="113.00" from="468433796" to="421037439#0"/>
    <trip id="114" depart="114.00" from="323742931" to="-537114618#8"/>
    <trip id="115" depart="115.00" from="6063421#3" to="297382770#3"/>
    <trip id="116" depart="116.00" from="723610179" to="50524890#5"/>
    <trip id="117" depart="117.00" from="6053702#3" to="1049842803"/>
    <trip id="118" depart="118.00" from="466359339#0" to="421075190#3"/>
    <trip id="119" depart="119.00" from="-297380211#3" to="589533504#1"/>
</routes>
