<?xml version="1.0" encoding="UTF-8"?>
<!-- generated on 2022-10-26 03:15:59.186485 by $Id$ UNKNOWN
  options: -n /Users/nafiulhassan/veins-5.1/examples/veins/input/washingtondc/30/washingtondc.net.xml -s 21 -e 120 -o /Users/nafiulhassan/veins-5.1/examples/veins/input/washingtondc/seed-21/120/washingtondc.trips.xml
-->
<routes xmlns:xsi="http://www.w3.org/2001/XMLSchema-instance" xsi:noNamespaceSchemaLocation="http://sumo.dlr.de/xsd/routes_file.xsd">
    <trip id="0" depart="0.00" from="-468433796" to="469154543"/>
    <trip id="1" depart="1.00" from="45838766#1" to="297380210#2"/>
    <trip id="2" depart="2.00" from="-509645504#3" to="509326344#0"/>
    <trip id="3" depart="3.00" from="520537739" to="321477125#0"/>
    <trip id="4" depart="4.00" from="321444902#0" to="-543909823#1"/>
    <trip id="5" depart="5.00" from="-120478695#2" to="130788207#4"/>
    <trip id="6" depart="6.00" from="397354452#0" to="-297380211#3"/>
    <trip id="7" depart="7.00" from="509646035#2" to="-537114618#1"/>
    <trip id="8" depart="8.00" from="-537114618#2" to="-202992522#3"/>
    <trip id="9" depart="9.00" from="998338690#0" to="50260020#2"/>
    <trip id="10" depart="10.00" from="589551086#0" to="435424520#0"/>
    <trip id="11" depart="11.00" from="-131052512#5" to="1052908774#0"/>
    <trip id="12" depart="12.00" from="29961175#0" to="-397316522"/>
    <trip id="13" depart="13.00" from="696806633#2" to="130788195"/>
    <trip id="14" depart="14.00" from="-438958617#6" to="520537749-AddedOnRampEdge"/>
    <trip id="15" depart="15.00" from="-397327121#1" to="6059056#2"/>
    <trip id="16" depart="16.00" from="296355738#0" to="397315035#2"/>
    <trip id="17" depart="17.00" from="126303361#0" to="297382770#0"/>
    <trip id="18" depart="18.00" from="-469165490#1" to="-202992519#2"/>
    <trip id="19" depart="19.00" from="589539519#2" to="-537114618#5"/>
    <trip id="20" depart="20.00" from="508158270#0" to="-50511365#4"/>
    <trip id="21" depart="21.00" from="920893151#0" to="6053702#3"/>
    <trip id="22" depart="22.00" from="50431289" to="50511365#1"/>
    <trip id="23" depart="23.00" from="397327939#0" to="49887645#0"/>
    <trip id="24" depart="24.00" from="-397321700#2" to="297368443#0"/>
    <trip id="25" depart="25.00" from="537114618#3" to="-496467787#1"/>
    <trip id="26" depart="26.00" from="6057813#0" to="590605528#2"/>
    <trip id="27" depart="27.00" from="130927087#0" to="130788158#0"/>
    <trip id="28" depart="28.00" from="292148139#0" to="130889704#0"/>
    <trip id="29" depart="29.00" from="988487224#0" to="130889705#0"/>
    <trip id="30" depart="30.00" from="-130908283#0" to="-347003226"/>
    <trip id="31" depart="31.00" from="48018651#0" to="987879163#0"/>
    <trip id="32" depart="32.00" from="29961164#0" to="297759292#1"/>
    <trip id="33" depart="33.00" from="397316203#0" to="50429908"/>
    <trip id="34" depart="34.00" from="-520468342" to="423602319#0"/>
    <trip id="35" depart="35.00" from="397318411#0" to="436136927#7"/>
    <trip id="36" depart="36.00" from="-468469897#1" to="-468433804"/>
    <trip id="37" depart="37.00" from="130285088#0" to="6059056#0"/>
    <trip id="38" depart="38.00" from="126303365" to="409551583"/>
    <trip id="39" depart="39.00" from="1033847615#0" to="-353283601"/>
    <trip id="40" depart="40.00" from="-297296751#2" to="520537744"/>
    <trip id="41" depart="41.00" from="50799230#6" to="130802359#0"/>
    <trip id="42" depart="42.00" from="469154540#0" to="468469894#0"/>
    <trip id="43" depart="43.00" from="6054886#0" to="70948801#3"/>
    <trip id="44" depart="44.00" from="130908291#0" to="985426724"/>
    <trip id="45" depart="45.00" from="837279711#0" to="397329580#0"/>
    <trip id="46" depart="46.00" from="590581668#2" to="297759292#1"/>
    <trip id="47" depart="47.00" from="130802372#3" to="-589551086#2"/>
    <trip id="48" depart="48.00" from="589551087#0" to="-468433792#1"/>
    <trip id="49" depart="49.00" from="-297380211#3" to="520463951#2"/>
    <trip id="50" depart="50.00" from="50797098#6" to="297382769#0"/>
    <trip id="51" depart="51.00" from="575569267#15" to="-26572919#5"/>
    <trip id="52" depart="52.00" from="-6054886#1" to="-920636360#1"/>
    <trip id="53" depart="53.00" from="131052515" to="-468433805"/>
    <trip id="54" depart="54.00" from="-297380211#3" to="120478695#5"/>
    <trip id="55" depart="55.00" from="6054886#0" to="983121553#2"/>
    <trip id="56" depart="56.00" from="50429917" to="297380210#2"/>
    <trip id="57" depart="57.00" from="-590581594#1" to="70948801#3"/>
    <trip id="58" depart="58.00" from="347003229#2" to="496467785#0"/>
    <trip id="59" depart="59.00" from="-130908283#2" to="-50799230#6"/>
    <trip id="60" depart="60.00" from="575569267#5" to="509640269"/>
    <trip id="61" depart="61.00" from="590581593#4" to="421075190#2"/>
    <trip id="62" depart="62.00" from="146537585#0" to="397327124#0"/>
    <trip id="63" depart="63.00" from="589533504#0" to="1008299672"/>
    <trip id="64" depart="64.00" from="353283534#0" to="-6060903#1"/>
    <trip id="65" depart="65.00" from="50524890#2" to="-126303361#4"/>
    <trip id="66" depart="66.00" from="469154544" to="696806636#0"/>
    <trip id="67" depart="67.00" from="-130889749#1" to="397363850#1"/>
    <trip id="68" depart="68.00" from="466359339#1" to="583705856#1"/>
    <trip id="69" depart="69.00" from="397329580#0" to="-6054255#5"/>
    <trip id="70" depart="70.00" from="130908290#3" to="70948801#3"/>
    <trip id="71" depart="71.00" from="6055727#0" to="-397329578#2"/>
    <trip id="72" depart="72.00" from="-347003227" to="-347003227"/>
    <trip id="73" depart="73.00" from="-130908059#2" to="203119342#0"/>
    <trip id="74" depart="74.00" from="-421076402" to="589539518#2"/>
    <trip id="75" depart="75.00" from="468433805" to="-397327933"/>
    <trip id="76" depart="76.00" from="354079210" to="1051018092#0"/>
    <trip id="77" depart="77.00" from="298832254#0" to="-514191883#2"/>
    <trip id="78" depart="78.00" from="-468433797#3" to="-468469904#1"/>
    <trip id="79" depart="79.00" from="130889700#0" to="476103810"/>
    <trip id="80" depart="80.00" from="397316195#0" to="-203025090#1"/>
    <trip id="81" depart="81.00" from="47916247#2" to="589539536#2"/>
    <trip id="82" depart="82.00" from="50797098#8" to="509326127#2"/>
    <trip id="83" depart="83.00" from="-125568108#9" to="296367654#0"/>
    <trip id="84" depart="84.00" from="-297294789#2" to="50511365#3"/>
    <trip id="85" depart="85.00" from="-468441884" to="476103812"/>
    <trip id="86" depart="86.00" from="-6053702#1" to="469159258#2"/>
    <trip id="87" depart="87.00" from="1049235346#0" to="-202992522#3"/>
    <trip id="88" depart="88.00" from="130889758#10" to="1033847613#0"/>
    <trip id="89" depart="89.00" from="6054895#3" to="-923370378#9"/>
    <trip id="90" depart="90.00" from="321444898" to="397303092#0"/>
    <trip id="91" depart="91.00" from="696737929#1" to="-352412039#1"/>
    <trip id="92" depart="92.00" from="421268132#0" to="308739814#0"/>
    <trip id="93" depart="93.00" from="50260020#4" to="86472738#0"/>
    <trip id="94" depart="94.00" from="1048676964#0" to="469165485#0"/>
    <trip id="95" depart="95.00" from="347003229#2" to="397317310#0"/>
    <trip id="96" depart="96.00" from="-297294791#2" to="520537745"/>
    <trip id="97" depart="97.00" from="927598886#0" to="130285133#0"/>
    <trip id="98" depart="98.00" from="1049842804" to="987879163#0"/>
    <trip id="99" depart="99.00" from="-397303092#2" to="-298832235#2"/>
    <trip id="100" depart="100.00" from="-297382769#6" to="520537745"/>
    <trip id="101" depart="101.00" from="50511365#2" to="203119345#0"/>
    <trip id="102" depart="102.00" from="438958617#3" to="-130788227#3"/>
    <trip id="103" depart="103.00" from="466359340#0" to="202992524#5"/>
    <trip id="104" depart="104.00" from="333922766#2" to="130889755#0"/>
    <trip id="105" depart="105.00" from="130908289#3" to="-520532363"/>
    <trip id="106" depart="106.00" from="-24238018#1" to="155011691#0"/>
    <trip id="107" depart="107.00" from="-589551086#2" to="469165492#2"/>
    <trip id="108" depart="108.00" from="521221938" to="48018653"/>
    <trip id="109" depart="109.00" from="296365351#3" to="-575569267#10"/>
    <trip id="110" depart="110.00" from="130889756#3" to="297401518#0"/>
    <trip id="111" depart="111.00" from="45838762#1" to="837279711#4"/>
    <trip id="112" depart="112.00" from="-308739814#1" to="297380211#0"/>
    <trip id="113" depart="113.00" from="298832235#3" to="47916249#0"/>
    <trip id="114" depart="114.00" from="6053702#2" to="50799230#0"/>
    <trip id="115" depart="115.00" from="439875858#1" to="50431292#0"/>
    <trip id="116" depart="116.00" from="468469887" to="589533517#3"/>
    <trip id="117" depart="117.00" from="469165494" to="468469931#0"/>
    <trip id="118" depart="118.00" from="-589539520#2" to="6057421#2"/>
    <trip id="119" depart="119.00" from="130889756#3" to="435106240#1"/>
</routes>
