<?xml version="1.0" encoding="UTF-8"?>
<!-- generated on 2022-10-26 03:16:31.499045 by $Id$ UNKNOWN
  options: -n /Users/nafiulhassan/veins-5.1/examples/veins/input/washingtondc/30/washingtondc.net.xml -s 29 -e 120 -o /Users/nafiulhassan/veins-5.1/examples/veins/input/washingtondc/seed-29/120/washingtondc.trips.xml
-->
<routes xmlns:xsi="http://www.w3.org/2001/XMLSchema-instance" xsi:noNamespaceSchemaLocation="http://sumo.dlr.de/xsd/routes_file.xsd">
    <trip id="0" depart="0.00" from="397316176#0" to="126303355#0"/>
    <trip id="1" depart="1.00" from="583698434" to="-864614823#1"/>
    <trip id="2" depart="2.00" from="323742888" to="125568108#5"/>
    <trip id="3" depart="3.00" from="131052508#3" to="923370378#3"/>
    <trip id="4" depart="4.00" from="-353283601" to="203025090#0"/>
    <trip id="5" depart="5.00" from="-520532363" to="126303364"/>
    <trip id="6" depart="6.00" from="998360408#0" to="1052908775#0"/>
    <trip id="7" depart="7.00" from="435106239#0" to="131052508#2"/>
    <trip id="8" depart="8.00" from="50008439" to="203119343"/>
    <trip id="9" depart="9.00" from="-468433805" to="155011691#0"/>
    <trip id="10" depart="10.00" from="130908292#2" to="509326344#0"/>
    <trip id="11" depart="11.00" from="397319281#0" to="-47916247#2"/>
    <trip id="12" depart="12.00" from="468469904#0" to="-983121553#2"/>
    <trip id="13" depart="13.00" from="323742930#2" to="-514191883#2"/>
    <trip id="14" depart="14.00" from="131052297#3" to="508158271"/>
    <trip id="15" depart="15.00" from="333922526#2" to="50429921"/>
    <trip id="16" depart="16.00" from="50511237#0" to="397329570"/>
    <trip id="17" depart="17.00" from="466359340#1" to="130889758#4"/>
    <trip id="18" depart="18.00" from="436136929#2" to="50797098#3"/>
    <trip id="19" depart="19.00" from="-352411913#1" to="6062881#0"/>
    <trip id="20" depart="20.00" from="130788207#4" to="-421037430#2"/>
    <trip id="21" depart="21.00" from="-436136927#2" to="121863780#1"/>
    <trip id="22" depart="22.00" from="-297380211#3" to="130889758#6"/>
    <trip id="23" depart="23.00" from="131052508#2" to="468433795#0"/>
    <trip id="24" depart="24.00" from="297295058#0" to="6062201#0"/>
    <trip id="25" depart="25.00" from="468434115#0" to="1049287312#2"/>
    <trip id="26" depart="26.00" from="589551073#0" to="469165485#0"/>
    <trip id="27" depart="27.00" from="910190956#0" to="50008440"/>
    <trip id="28" depart="28.00" from="888235719#0" to="-50431293#1"/>
    <trip id="29" depart="29.00" from="-6063421#1" to="923370378#0"/>
    <trip id="30" depart="30.00" from="-130802371#2" to="6057812#0"/>
    <trip id="31" depart="31.00" from="6056366#3" to="-397355102#2"/>
    <trip id="32" depart="32.00" from="-436136927#4" to="6057421#0"/>
    <trip id="33" depart="33.00" from="74100353#0" to="589539521#0"/>
    <trip id="34" depart="34.00" from="496467787#0" to="50511237#0"/>
    <trip id="35" depart="35.00" from="1036008539" to="-125568108#1"/>
    <trip id="36" depart="36.00" from="439875858#4" to="590581593#0"/>
    <trip id="37" depart="37.00" from="696737929#2" to="321477125#6"/>
    <trip id="38" depart="38.00" from="-126303356#1" to="-468436770"/>
    <trip id="39" depart="39.00" from="26572919#3" to="-535546520#4"/>
    <trip id="40" depart="40.00" from="-130908283#1" to="-476103813#1"/>
    <trip id="41" depart="41.00" from="305660797#0" to="-397327934#2"/>
    <trip id="42" depart="42.00" from="-397316176#1" to="-468433797#2"/>
    <trip id="43" depart="43.00" from="-131052512#3" to="50799606#0"/>
    <trip id="44" depart="44.00" from="589539519#2" to="-50260020#1"/>
    <trip id="45" depart="45.00" from="45838765#0" to="589551072#0"/>
    <trip id="46" depart="46.00" from="-589539518#1" to="120478418#0"/>
    <trip id="47" depart="47.00" from="590581593#4" to="50511365#0"/>
    <trip id="48" depart="48.00" from="438958617#0" to="509326776#0"/>
    <trip id="49" depart="49.00" from="397324964#0" to="1048252755#0"/>
    <trip id="50" depart="50.00" from="469154544" to="50799689#0"/>
    <trip id="51" depart="51.00" from="-292148140#4" to="1049842802#0"/>
    <trip id="52" depart="52.00" from="-983121553#2" to="590598870#0"/>
    <trip id="53" depart="53.00" from="-923370378#11" to="468469887"/>
    <trip id="54" depart="54.00" from="202992522#2" to="130802362#0"/>
    <trip id="55" depart="55.00" from="305660797#0" to="6054252#0"/>
    <trip id="56" depart="56.00" from="468434113#2" to="130889755#0"/>
    <trip id="57" depart="57.00" from="-436136927#4" to="126303354#0"/>
    <trip id="58" depart="58.00" from="297368443#0" to="466349886#3"/>
    <trip id="59" depart="59.00" from="998338690#6" to="1051018093#0"/>
    <trip id="60" depart="60.00" from="6063421#2" to="6056363#3"/>
    <trip id="61" depart="61.00" from="237743944#0" to="-520468342"/>
    <trip id="62" depart="62.00" from="-537114618#5" to="6057581#5"/>
    <trip id="63" depart="63.00" from="-468436769#1" to="466359338#2"/>
    <trip id="64" depart="64.00" from="468433797#3" to="-468433799#0"/>
    <trip id="65" depart="65.00" from="-131052297#9" to="45838763#0"/>
    <trip id="66" depart="66.00" from="-26707840#1" to="397303090#0"/>
    <trip id="67" depart="67.00" from="923370378#10" to="296367654#0"/>
    <trip id="68" depart="68.00" from="1049226224#0" to="-382850737#1"/>
    <trip id="69" depart="69.00" from="-998360408#3" to="1049287312#0"/>
    <trip id="70" depart="70.00" from="-397316524#1" to="469165490#2"/>
    <trip id="71" depart="71.00" from="421290235#0" to="47920785#0"/>
    <trip id="72" depart="72.00" from="-397303090#1" to="-589905511#3"/>
    <trip id="73" depart="73.00" from="6058797" to="-126303356#1"/>
    <trip id="74" depart="74.00" from="130802359#0" to="520537749-AddedOnRampEdge"/>
    <trip id="75" depart="75.00" from="-521221938" to="-514191883#2"/>
    <trip id="76" depart="76.00" from="460536376#0" to="-590581593#3"/>
    <trip id="77" depart="77.00" from="121980228" to="130889756#5"/>
    <trip id="78" depart="78.00" from="-985426724" to="468433799#0"/>
    <trip id="79" depart="79.00" from="50260020#4" to="50511364#1"/>
    <trip id="80" depart="80.00" from="969732759#0" to="-297382769#6"/>
    <trip id="81" depart="81.00" from="-6054255#6" to="983121554#6"/>
    <trip id="82" depart="82.00" from="516085384#0" to="50511364#0"/>
    <trip id="83" depart="83.00" from="-520468342" to="-397327936#1"/>
    <trip id="84" depart="84.00" from="-6061387#5" to="6053702#0"/>
    <trip id="85" depart="85.00" from="50429923" to="130788167#1"/>
    <trip id="86" depart="86.00" from="468434114#0" to="50009629#0"/>
    <trip id="87" depart="87.00" from="-920636360#1" to="-397303090#1"/>
    <trip id="88" depart="88.00" from="520537746" to="476103805"/>
    <trip id="89" depart="89.00" from="520532363" to="50428539#2"/>
    <trip id="90" depart="90.00" from="130788204#0" to="468433793#0"/>
    <trip id="91" depart="91.00" from="130788207#2" to="6055382#0"/>
    <trip id="92" depart="92.00" from="-397321705#1" to="469159258#2"/>
    <trip id="93" depart="93.00" from="126303365" to="6056363#0"/>
    <trip id="94" depart="94.00" from="520468347#0" to="-468441158#1"/>
    <trip id="95" depart="95.00" from="-130788167#2" to="-537114618#4"/>
    <trip id="96" depart="96.00" from="837279711#0" to="50524889#15"/>
    <trip id="97" depart="97.00" from="476103812" to="-50511365#7"/>
    <trip id="98" depart="98.00" from="-50799230#6" to="203025090#2"/>
    <trip id="99" depart="99.00" from="352412100" to="435424521#0"/>
    <trip id="100" depart="100.00" from="-296365351#6" to="575569267#9"/>
    <trip id="101" depart="101.00" from="-589539518#3" to="47916246#2"/>
    <trip id="102" depart="102.00" from="1049842803" to="-961869114#1"/>
    <trip id="103" depart="103.00" from="589539536#0" to="-510723128#1"/>
    <trip id="104" depart="104.00" from="321444899#0" to="589539536#4"/>
    <trip id="105" depart="105.00" from="537114618#5" to="47920785#0"/>
    <trip id="106" depart="106.00" from="-589533563#2" to="438958617#3"/>
    <trip id="107" depart="107.00" from="297380210#2" to="-988196201#2"/>
    <trip id="108" depart="108.00" from="50797097#0" to="468469890#2"/>
    <trip id="109" depart="109.00" from="6054252#2" to="131052515"/>
    <trip id="110" depart="110.00" from="-423602679" to="-6057813#1"/>
    <trip id="111" depart="111.00" from="50428539#6" to="469165490#2"/>
    <trip id="112" depart="112.00" from="466359338#2" to="130889758#4"/>
    <trip id="113" depart="113.00" from="397327936#0" to="-297380211#3"/>
    <trip id="114" depart="114.00" from="-333922766#1" to="520463956#0"/>
    <trip id="115" depart="115.00" from="-397315035#2" to="436136929#0"/>
    <trip id="116" depart="116.00" from="-985426725#1" to="-468433806#1"/>
    <trip id="117" depart="117.00" from="509325916" to="590581593#4"/>
    <trip id="118" depart="118.00" from="1049842802#0" to="-436136927#8"/>
    <trip id="119" depart="119.00" from="297273914#0" to="-397316186#1"/>
</routes>
