<?xml version="1.0" encoding="UTF-8"?>
<!-- generated on 2022-10-26 03:15:14.922651 by $Id$ UNKNOWN
  options: -n /Users/nafiulhassan/veins-5.1/examples/veins/input/washingtondc/30/washingtondc.net.xml -s 10 -e 120 -o /Users/nafiulhassan/veins-5.1/examples/veins/input/washingtondc/seed-10/120/washingtondc.trips.xml
-->
<routes xmlns:xsi="http://www.w3.org/2001/XMLSchema-instance" xsi:noNamespaceSchemaLocation="http://sumo.dlr.de/xsd/routes_file.xsd">
    <trip id="0" depart="0.00" from="397321711#2" to="131520206#0"/>
    <trip id="1" depart="1.00" from="397327935#0" to="-50511365#1"/>
    <trip id="2" depart="2.00" from="520537749" to="535462248"/>
    <trip id="3" depart="3.00" from="468433799#0" to="-466352083#1"/>
    <trip id="4" depart="4.00" from="345633935#7" to="1052604510#0"/>
    <trip id="5" depart="5.00" from="-589905511#3" to="696806633#2"/>
    <trip id="6" depart="6.00" from="988487226" to="-203025089#1"/>
    <trip id="7" depart="7.00" from="589533564#0" to="421076400#0"/>
    <trip id="8" depart="8.00" from="130889705#0" to="-6063421#5"/>
    <trip id="9" depart="9.00" from="468469915#1" to="292148140#0"/>
    <trip id="10" depart="10.00" from="469157092" to="468433806#0"/>
    <trip id="11" depart="11.00" from="-397329575#1" to="50524889#10"/>
    <trip id="12" depart="12.00" from="983121553#0" to="910190956#0"/>
    <trip id="13" depart="13.00" from="436136927#2" to="-202992524#7"/>
    <trip id="14" depart="14.00" from="-120478695#3" to="-397329578#2"/>
    <trip id="15" depart="15.00" from="6063421#3" to="-983121554#7"/>
    <trip id="16" depart="16.00" from="130788207#0" to="6054255#3"/>
    <trip id="17" depart="17.00" from="1049253134" to="397303092#0"/>
    <trip id="18" depart="18.00" from="202992524#0" to="-297296749#2"/>
    <trip id="19" depart="19.00" from="397329580#0" to="575569268"/>
    <trip id="20" depart="20.00" from="-438964977" to="-520468347#3"/>
    <trip id="21" depart="21.00" from="131052386#3" to="-175873836#2"/>
    <trip id="22" depart="22.00" from="29961168#0" to="520537749-AddedOnRampEdge"/>
    <trip id="23" depart="23.00" from="468434113#2" to="347003328#0"/>
    <trip id="24" depart="24.00" from="589533517#2" to="-436136927#4"/>
    <trip id="25" depart="25.00" from="397321698#0" to="130788227#4"/>
    <trip id="26" depart="26.00" from="421268132#0" to="-397316186#1"/>
    <trip id="27" depart="27.00" from="50799230#0" to="-347003330#3"/>
    <trip id="28" depart="28.00" from="-468433798#1" to="520468343#2"/>
    <trip id="29" depart="29.00" from="696737929#0" to="155011689#0"/>
    <trip id="30" depart="30.00" from="131052508#0" to="-589539520#2"/>
    <trip id="31" depart="31.00" from="-6061387#2" to="435424522#0"/>
    <trip id="32" depart="32.00" from="-468469887" to="-397318415#1"/>
    <trip id="33" depart="33.00" from="296365351#3" to="-468433796"/>
    <trip id="34" depart="34.00" from="468433793#0" to="521221938"/>
    <trip id="35" depart="35.00" from="50799230#6" to="297380211#0"/>
    <trip id="36" depart="36.00" from="130285088#0" to="175873836#0"/>
    <trip id="37" depart="37.00" from="-121980352" to="47916243#0"/>
    <trip id="38" depart="38.00" from="120478695#0" to="1049253134"/>
    <trip id="39" depart="39.00" from="-298832261#2" to="203119345#0"/>
    <trip id="40" depart="40.00" from="397329577#0" to="130889756#3"/>
    <trip id="41" depart="41.00" from="589539535#0" to="468450580#0"/>
    <trip id="42" depart="42.00" from="-589533512#0" to="345633935#0"/>
    <trip id="43" depart="43.00" from="6056366#3" to="333922462#0"/>
    <trip id="44" depart="44.00" from="421290235#0" to="-297294789#2"/>
    <trip id="45" depart="45.00" from="298825115#0" to="296365351#6"/>
    <trip id="46" depart="46.00" from="130908289#3" to="131052508#3"/>
    <trip id="47" depart="47.00" from="397354452#0" to="352412093#0"/>
    <trip id="48" depart="48.00" from="298825115#1" to="-468433797#3"/>
    <trip id="49" depart="49.00" from="203119342#0" to="888235719#3"/>
    <trip id="50" depart="50.00" from="131052508#3" to="-148762106#2"/>
    <trip id="51" depart="51.00" from="-120478695#2" to="347003330#4"/>
    <trip id="52" depart="52.00" from="-252140542#2" to="-345633936#1"/>
    <trip id="53" depart="53.00" from="-397304549#1" to="26707840#0"/>
    <trip id="54" depart="54.00" from="988196201#0" to="297382770#3"/>
    <trip id="55" depart="55.00" from="296365924#2" to="202992520#2"/>
    <trip id="56" depart="56.00" from="305660797#2" to="203119342#0"/>
    <trip id="57" depart="57.00" from="49999716#0" to="6054255#3"/>
    <trip id="58" depart="58.00" from="469165492#2" to="131052512#3"/>
    <trip id="59" depart="59.00" from="468433794" to="6056363#0"/>
    <trip id="60" depart="60.00" from="-438958617#4" to="-575569267#12"/>
    <trip id="61" depart="61.00" from="436136930#0" to="469151751"/>
    <trip id="62" depart="62.00" from="466359338#2" to="397329575#0"/>
    <trip id="63" depart="63.00" from="537114618#9" to="297380210#2"/>
    <trip id="64" depart="64.00" from="520537739" to="837279711#2"/>
    <trip id="65" depart="65.00" from="202992522#2" to="589533517#3"/>
    <trip id="66" depart="66.00" from="48018651#0" to="590605528#3"/>
    <trip id="67" depart="67.00" from="-203025090#1" to="6056532#0"/>
    <trip id="68" depart="68.00" from="50524889#7" to="837279711#2"/>
    <trip id="69" depart="69.00" from="971624710" to="-698748856#1"/>
    <trip id="70" depart="70.00" from="468469890#2" to="-421077027"/>
    <trip id="71" depart="71.00" from="421075190#1" to="6057581#2"/>
    <trip id="72" depart="72.00" from="-47916243#1" to="126303364"/>
    <trip id="73" depart="73.00" from="-298832254#2" to="-47916246#3"/>
    <trip id="74" depart="74.00" from="-50511365#4" to="-347003329#2"/>
    <trip id="75" depart="75.00" from="998360408#1" to="590605528#0"/>
    <trip id="76" depart="76.00" from="297285722#0" to="50428539#5"/>
    <trip id="77" depart="77.00" from="469165488#0" to="333922765#0"/>
    <trip id="78" depart="78.00" from="131520206#0" to="468434113#2"/>
    <trip id="79" depart="79.00" from="397317311#0" to="-6057544#5"/>
    <trip id="80" depart="80.00" from="130788192#0" to="438958617#3"/>
    <trip id="81" depart="81.00" from="439875858#1" to="-50799230#1"/>
    <trip id="82" depart="82.00" from="435424520#0" to="589539536#4"/>
    <trip id="83" depart="83.00" from="589539536#2" to="466359342#3"/>
    <trip id="84" depart="84.00" from="-297380211#6" to="131052512#3"/>
    <trip id="85" depart="85.00" from="-333922526#1" to="-296355738#0"/>
    <trip id="86" depart="86.00" from="-6053702#4" to="292148140#0"/>
    <trip id="87" depart="87.00" from="50511365#2" to="438958617#7"/>
    <trip id="88" depart="88.00" from="-70948803#2" to="469159258#0"/>
    <trip id="89" depart="89.00" from="321477125#0" to="305660797#3"/>
    <trip id="90" depart="90.00" from="-6057544#5" to="202992524#0"/>
    <trip id="91" depart="91.00" from="126303355#0" to="494175930#0"/>
    <trip id="92" depart="92.00" from="297444228#0" to="203119342#0"/>
    <trip id="93" depart="93.00" from="297380214#3" to="297380211#0"/>
    <trip id="94" depart="94.00" from="469159257#0" to="48018630"/>
    <trip id="95" depart="95.00" from="520463956#0" to="130908289#11"/>
    <trip id="96" depart="96.00" from="509646035#2" to="854143897#0"/>
    <trip id="97" depart="97.00" from="987879163#0" to="48018643"/>
    <trip id="98" depart="98.00" from="-297296749#2" to="583698432"/>
    <trip id="99" depart="99.00" from="575569267#15" to="-130788167#2"/>
    <trip id="100" depart="100.00" from="108060074#0" to="1049842802#0"/>
    <trip id="101" depart="101.00" from="50428543#0" to="423607087"/>
    <trip id="102" depart="102.00" from="-70948803#2" to="-469165487"/>
    <trip id="103" depart="103.00" from="-468433800" to="-347003328#2"/>
    <trip id="104" depart="104.00" from="509645504#1" to="6062204"/>
    <trip id="105" depart="105.00" from="-514191883#2" to="50428543#0"/>
    <trip id="106" depart="106.00" from="696806633#0" to="-476103806"/>
    <trip id="107" depart="107.00" from="397321711#2" to="202992520#8"/>
    <trip id="108" depart="108.00" from="924793627#0" to="589539521#0"/>
    <trip id="109" depart="109.00" from="-130788167#2" to="-496467787#1"/>
    <trip id="110" depart="110.00" from="583705856#2" to="397321701#0"/>
    <trip id="111" depart="111.00" from="347003226" to="520532355#0"/>
    <trip id="112" depart="112.00" from="50524889#10" to="696806637#0"/>
    <trip id="113" depart="113.00" from="1060936417" to="-203119342#1"/>
    <trip id="114" depart="114.00" from="469159259" to="-252140542#2"/>
    <trip id="115" depart="115.00" from="397319284#0" to="589533518#2"/>
    <trip id="116" depart="116.00" from="130908283#0" to="421075190#1"/>
    <trip id="117" depart="117.00" from="-468433806#1" to="-45838764#1"/>
    <trip id="118" depart="118.00" from="423615732#0" to="589533583#0"/>
    <trip id="119" depart="119.00" from="998360408#1" to="-131052297#9"/>
</routes>
