<?xml version="1.0" encoding="UTF-8"?>

<!-- generated on 2022-10-26 03:16:25 by Eclipse SUMO duarouter Version 1.10.0
	<routes>

    <input>
        <net-file value="/Users/nafiulhassan/veins-5.1/examples/veins/input/washingtondc/30/washingtondc.net.xml"/>
        <route-files value="/Users/nafiulhassan/veins-5.1/examples/veins/input/washingtondc/seed-28/40/washingtondc.trips.xml"/>
    </input>

    <output>
        <output-file value="/Users/nafiulhassan/veins-5.1/examples/veins/input/washingtondc/seed-28/40/washingtondc.rou.xml"/>
        <alternatives-output value="/Users/nafiulhassan/veins-5.1/examples/veins/input/washingtondc/seed-28/40/washingtondc.rou.alt.xml"/>
    </output>

    <report>
        <ignore-errors value="true"/>
    </report>

</configuration>
-->

	<routes>
	<vehicle id="0" depart="0.00">
        <route edges="-397316180#1 -397316171 -397316176#1 397316176#0 397316171 397316180#0 347003330#0 347003330#4 589533563#0 589539518#0 589539518#2 297380210#0 297380210#2 -297380214#6 -297380214#2 -397329572#1 -397329570"/>
    </vehicle>
	<vehicle id="1" depart="0.00">
        <route edges="421076400#0 468434120#0 543909823#0 985426725#0 985426724 468436769#0 6056069#0 589533583#0 589539536#0 589539536#2 589539536#3 589539536#4 590581668#0 590581668#2 1049842802#0 1049842803 1049842804 589539534#0 1049287312#0 1049287312#2 126303354#0 126303354#2 345709542#0 1048676964#0 298848145#0 130285121#0 508158271 508158272#0 130889749#0 130889749#2 397316524#0 -397316522 -298814317#2 468433794 397319278#0 298814316 454817812 146537575#0 397319276 297456132#0 397324964#0 397324962 203025090#0 203025090#2 -468450579#1"/>
    </vehicle>
	<vehicle id="2" depart="0.00">
        <route edges="-397329572#1 -397329570 -397329575#1 120478695#0 120478695#3 120478695#4 120478695#5 468441885#0 468441885#2 202992519#0 -6057595#2 -988196201#2 -6062204 6062876#0 509325421 468450542 130285122#0 126303355#0 347003228#0 347003229#0 347003229#2 589551073#0 1051018092#0 345633934 1051018093#0 589539535#0 589533502#0 469165486#0 469165487 469165488#0 -469165489#1 -469165490#1 -537114618#10 -537114618#8 -537114618#5 -537114618#4 -537114618#2 6062881#0 985067151 130285133#0-AddedOnRampEdge 130285133#0 6056363#0 6056363#2 6056363#3 130889760#0 131463018#0 509326252#0 296971737#0"/>
    </vehicle>
	<vehicle id="3" depart="0.00">
        <route edges="131052512#2 131052512#3 131052512#4 130908059#0 120478695#0 120478695#3 120478695#4 120478695#5 468441885#0 468441885#2 202992519#0 -6057595#2 -988196201#2 -6062204 6062876#0 509325421 468450542 130285122#0 126303355#0 347003228#0 347003229#0 347003229#2 589551073#0 1051018092#0 345633934 1051018093#0 589539535#0 589533502#0 468434122#0 468434122#2 695842775 469157093 469157092 1048252755#0 589533511 520537739 -421076402 -509325914"/>
    </vehicle>
	<vehicle id="4" depart="0.00">
        <route edges="130889758#4 130889758#6 130889758#10 130889758#12 696806633#0 696806633#2 590605528#0 590605528#2 590605528#3 696737929#0 696737929#1 696737929#2 130802360#0 130802360#1 469159255 353283535#0 353283535#2 469159257#0 469159256#0 469159256#3 469159259 469159258#0 469159258#1 469159258#2 468469919#0 468469927#0 468469927#2 460536376#0 468469923#0 468469931#0 468469935#0 468469935#2 468469943#0 -479469615#3 -520463951#3 -520463951#1 575569267#3 575569267#5"/>
    </vehicle>
	<vehicle id="5" depart="0.00">
        <route edges="-397327939#1 26572919#3 297380214#3 -297380210#3 -297380210#1 -589539518#3 -589539518#1 -589533563#2 -347003330#6 -347003330#3 347003328#0 -397303092#2 -397303090#1 -175873836#2 130802372#0 130802372#3 589551073#0 1051018092#0 345633934 1051018093#0 589539535#0 589533502#0 469165486#0 469165487 469165488#0 -469165489#1"/>
    </vehicle>
	<vehicle id="6" depart="0.00">
        <route edges="-130908283#2 -130908283#1 -130908283#0 -352411913#1 -354202945#1 476103809#0 298832254#0 298832261#0 298832240 864614823#0 864614823#2 468469923#0 468469931#0 468469935#0 468469935#2 468469943#0 -479469615#3 -520463951#3 -520463951#1 575569267#3 -575569267#4"/>
    </vehicle>
	<vehicle id="7" depart="0.00">
        <route edges="-347003227 -468433791#1 -521200399 -347003226 -535546520#4 -535546520#1 -479469615#3 48018661#0 130772931#1 575569268 130772928#0 121863780#0 121863780#1 988487224#0 48018630 988487225#0 130889704#0 130889704#1 837279711#0 837279711#2 837279711#4 1051205229#0 1051205229#1 130889702#0 130889702#3 130889702#4 1052908775#0 -983121554#1 983121554#0"/>
    </vehicle>
	<vehicle id="8" depart="0.00">
        <route edges="1049287312#0 1049287312#2 6061944#0 1051018092#0 345633934 1051018093#0 589539535#0 589533502#0 468434122#0 468434122#2 695842775 469157093 469157092 468434120#0 543909823#0 985426725#0 985426724"/>
    </vehicle>
	<vehicle id="9" depart="0.00">
        <route edges="-397327937#1 -397327936#1 589905511#0 120478695#0 120478695#3 120478695#4 120478695#5 468441885#0 468441885#2 202992519#0 -6057595#2 -988196201#2 -6062204 6062876#0 509325421 468450542 130285122#0 126303355#0 347003228#0 347003229#0 347003229#2 589551073#0 1051018092#0 345633934 1051018093#0 589539535#0 589533502#0 469165486#0 469165487 469165488#0 -469165489#1 -469165490#1 -537114618#10 -537114618#8 -537114618#5 -537114618#4 -537114618#2 -537114618#1 -468434115#1 -923370378#11 -923370378#9 -923370378#7 -923370378#6 -6055383#2 6055383#0"/>
    </vehicle>
	<vehicle id="10" depart="0.00">
        <route edges="321477125#0 321477125#3 321477125#4 421075190#1 421075190#2 421075190#3 345633935#0 345633935#3 345633935#5 345633935#7 888235719#0 888235719#3 589533517#0 589533517#2 589533517#3 696806637#0 435106239#0 469154542 397360057#0 469154543 397360055#0 50431293#0 469154544"/>
    </vehicle>
	<vehicle id="11" depart="0.00">
        <route edges="468436769#0 6056069#0 589533583#0 589539536#0 589539536#2 589539536#3 589539536#4 590581668#0 590581668#2 1049842802#0 1049842803 1049842804 589539534#0 1049287312#0 1049287312#2 126303354#0 126303354#2 345709542#0 1048676964#0 298848145#0 1047793071 298814315#0 508158270#0 421268132#0 439875857#0 590598870#0 509326776#0 650605162 6062204 988196201#0 6057595#0 -6057595#2"/>
    </vehicle>
	<vehicle id="12" depart="0.00">
        <route edges="-537114618#10 537114618#9 469165490#0 469165490#2 590581668#0 590581668#2 1049842802#0 1049842803 1049842804 589539534#0 -469165492#2 -469165492#1 6060903#0 6060903#2 6060903#3 520532363 476103809#0 298832254#0 298832261#0 298832240 864614823#0 864614823#2 298832235#0 298832235#3 298832235#4 48018653 48018648#0 468469915#0"/>
    </vehicle>
	<vehicle id="13" depart="0.00">
        <route edges="-397329570 -397329575#1 120478695#0 120478695#3 120478695#4 120478695#5 468441885#0 468441885#2 202992519#0 -6057595#2 -988196201#2 -6062204 6062876#0 509325421 468450542 130285122#0 126303355#0 347003228#0 347003229#0 347003229#2 589551073#0 1051018092#0 345633934 1051018093#0 589539535#0 589533502#0 468434122#0 468434122#2 695842775 469157093 583698433#0 -130285136#2"/>
    </vehicle>
	<vehicle id="14" depart="0.00">
        <route edges="50710195#2 297296770#0 6056532#0 45838762#1 971624710 6062876#0 509325421 468450542 130285122#0 439875858#4"/>
    </vehicle>
	<vehicle id="15" depart="0.00">
        <route edges="-6056371#1 -397318415#1 589533564#0 589533563#0 -347003329#2 -333922526#3 -333922526#1 333922462#0"/>
    </vehicle>
	<vehicle id="16" depart="0.00">
        <route edges="6056366#0 6056366#3 130889756#0 130889756#3 130889756#5 130889756#7 130889757#0 698748857#0 589539536#0 589539536#2 589539536#3 589539536#4 590581668#0 590581668#2 1049842802#0 1049842803 1049842804 589539534#0 1049287312#0 1049287312#2 6061944#0 -6061944#3"/>
    </vehicle>
	<vehicle id="17" depart="0.00">
        <route edges="-397321705#1 -589551092#1 -589551092#0 146537587#0 397324962 29961168#0 131052386#0"/>
    </vehicle>
	<vehicle id="18" depart="0.00">
        <route edges="-468433799#0 -468433800 468469927#0 468469927#2 460536376#0 468469923#0 468469931#0 468469935#0 468469935#2 468469943#0 535546520#0 535546520#3 347003226 47920785#0 352412073 509646034#0 434444693#0 130788192#0"/>
    </vehicle>
	<vehicle id="19" depart="0.00">
        <route edges="-131052512#2 131052512#2 131052512#3 131052512#4 130908059#0 120478695#0 120478695#3 120478695#4 120478695#5 468441885#0 468441885#2 202992519#0 589551087#0 47916246#0 47916246#2 297296749#0 -466352083#1 50511365#2 50511365#3"/>
    </vehicle>
	<vehicle id="20" depart="0.00">
        <route edges="520532361#0 50429917 -354202945#1 476103809#0 298832254#0 298832261#0 126303356#0 476103811 476103813#0 298815729#0 352412039#0 47920785#0 352412073 509646034#0 434444693#0 130788192#0 435424520#0 -420781368#1 -920893151#1 -6057581#6 -6057581#5 -6057581#4 -6057581#3 -6057581#2 -6057581#1 -6056532#2 421037430#0 130788227#0 130788227#2"/>
    </vehicle>
	<vehicle id="21" depart="0.00">
        <route edges="130889700#0 -130788167#2 -130788167#0 130802362#0 130802362#1 466359340#0 466359340#1 535462248 421075190#0 421075190#1 421075190#2 421075190#3 543909823#0 985426725#0 985426724 468436769#0 6056069#0 589533583#0 589539536#0 589539536#2 589539536#3 589539536#4 590581668#0 590581668#2 1049842802#0 1049842803 1049842804 589539534#0 1049287312#0 1049287312#2 126303354#0 126303354#2 345709542#0 1048676964#0 298848145#0 130285121#0 508158271 508158272#0 130889749#0 130889749#2 397316524#0 -397316522 -298814317#2 468433794 397319278#0 298814316 454817812 146537575#0 397319276 297456132#0 397324964#0 397324962 146537578#0 297294784#0 -6054255#8 -6054255#6"/>
    </vehicle>
	<vehicle id="22" depart="0.00">
        <route edges="696806637#0 435106239#0 469154542 6057417#0 6056366#0 6056366#3 130889756#0 130889756#3 130889756#5 130889756#7 130889757#0 698748857#0 589539536#0 589539536#2 589539536#3 589539536#4 590581668#0 590581668#2 1049842802#0 1049842803 1049842804 589539534#0 1049287312#0 1049287312#2 126303354#0 126303354#2 345709542#0 1048676964#0 298848145#0 1047793071 298814315#0 508158270#0 421268132#0 439875857#0 590598870#0 509326776#0 252140542#0 -202992524#7 -202992524#4 -202992524#2 589551086#0"/>
    </vehicle>
	<vehicle id="23" depart="0.00">
        <route edges="468436769#0 6056069#0 589533583#0 589539536#0 589539536#2 589539536#3 589539536#4 590581668#0 590581668#2 1049842802#0 1049842803 1049842804 589539534#0 1049287312#0 1049287312#2 126303354#0 126303354#2 345709542#0 1048676964#0 298848145#0 1047793071 298814315#0 508158270#0 421268132#0 439875857#0 590598870#0 509326776#0 650605162 6062204 988196201#0 6057595#0 -202992519#2 -468441158#1"/>
    </vehicle>
	<vehicle id="24" depart="0.00">
        <route edges="-468434115#1 -923370378#11 923370378#10 468434115#0 26707982#0 130285133#0-AddedOnRampEdge 130285133#0 6056363#0 6056363#2 6056363#3 203119341#0 696806636#0 50428539#0 50428539#2 50428539#3 50428539#5 589533504#0 509326127#0 50524889#0"/>
    </vehicle>
	<vehicle id="25" depart="0.00">
        <route edges="-476103806 476103806 476103801 321477125#6 520537743#0 520537743#1 354436361#0 354436361#1 354436361#2 583698434 583698432 520537744 520537746 583705854 535520845#0 535520845#1 323742932 -126303366#1 469165486#0 469165487 469165488#0 -469165489#1 -469165490#1 469154540#0"/>
    </vehicle>
	<vehicle id="26" depart="0.00">
        <route edges="131076097#0 131076097#1 589539537#0 120478696#0 -131052297#9"/>
    </vehicle>
	<vehicle id="27" depart="0.00">
        <route edges="-49299976 -468433797#3 -468433797#2 -468433798#1 -468433799#1 -468433799#0 -468433800 468469927#0 468469927#2 460536376#0 468469923#0 468469931#0 468469935#0 468469935#2 468469943#0 468469939#0 468469946#0 200019461#0 435424520#0 -420781368#1 -920893151#1 -6057581#6 -6057581#5 -6057581#4 -6057581#3 -6057581#2 -6057581#1 954271698#0 988196201#0 6057595#0 202992520#2 202992520#3 -590581593#5 6057192#0"/>
    </vehicle>
	<vehicle id="28" depart="0.00">
        <route edges="1052604510#0 -435424522#5 -435424522#3 -435424522#1 -308739814#1 -435424521#1 -420781368#1 -920893151#1 -6057581#6 -6057581#5 -6057581#4 -6057581#3 -6057581#2 -6057581#1 954271698#0 988196201#0 29961175#0 468469890#0"/>
    </vehicle>
	<vehicle id="30" depart="0.00">
        <route edges="29961183#4 297382770#0 297382770#3 -50260020#7 -50260020#5 -50260020#3 -50260020#1 130927087#0 468433793#0 354079210 468433792#0 347003228#0 347003229#0 347003229#2 589551073#0 1051018092#0 345633934 1051018093#0 589539535#0 589533502#0 469165486#0 469165487 469165488#0 -469165489#1 -469165490#1 -537114618#10 -537114618#8 -537114618#5 -537114618#4 -537114618#2 6062881#0 985067151 130285133#0-AddedOnRampEdge 130285133#0 6056363#0 6056363#2 6056363#3 203119341#0 696806636#0 50428539#0 50428539#2 50428539#3 50428539#5 589533504#0 509326127#0 50524889#0 589533518#2 589533518#3"/>
    </vehicle>
	<vehicle id="31" depart="0.00">
        <route edges="49999716#2 50429908 509646034#0 434444693#0 -321444899#2 -321444898 -321444900 -648026207#1 -333922462#1 333922526#0"/>
    </vehicle>
	<vehicle id="32" depart="0.00">
        <route edges="397315033#0 -126303362#1 -130802371#2 -397303092#2 -397303090#1 -175873836#2 130802372#0 130802372#3 131448559#0 397364246#2 298832240 864614824#0 203119345#0"/>
    </vehicle>
	<vehicle id="33" depart="0.00">
        <route edges="146537585#0 297273916#0 297273916#2 297285722#0 494175930#0 297368443#0 146537579#0 130285135#0 -333922782#1 -333922765#2 -347003329#2 -333922526#3 -333922526#1 333922462#0 648026207#0 321444900 509326776#0 509325421 468450542"/>
    </vehicle>
	<vehicle id="34" depart="0.00">
        <route edges="-589539518#1 -347003329#2 -589539520#2 589539517#0"/>
    </vehicle>
	<vehicle id="35" depart="0.00">
        <route edges="-983121553#2 983121553#2 983121553#3 469165485#0 442066186#0 353283534#0 353283534#1 323742931 126303364 323742932 -126303366#1 469165486#0 469165487 469165488#0 590581668#0 590581668#2 1049842802#0 1049842803 1049842804 589539534#0 1049287312#0 1049287312#2 126303354#0 126303354#2 345709542#0 1048676964#0 -347003327#2 -397316204#2 -397316195#1 -397316186#1 -397316180#1 -397316171 -397316176#1 -70948803#2 -397316203#1 -45838763#1 -535718852#1"/>
    </vehicle>
	<vehicle id="36" depart="0.00">
        <route edges="864614823#0 -864614823#1 -298832240 -298832261#2 -298832254#2 -476103809#1 -520532363 -6060903#4 -6060903#2 -6060903#1 589539535#0 589533502#0 468434122#0 468434122#2 695842775 469157093 469157092 468434120#0 345633936#0 466349886#0 466349886#2 466349886#3 -130788158#1"/>
    </vehicle>
	<vehicle id="37" depart="0.00">
        <route edges="130908292#0 130908292#2 130908292#3 509326344#0 6054254#0 469154543 397360055#0 50431293#0 469154544 6063274#0 1049303874#0 6055383#0 -923370378#4 -923370378#2 -923370378#0 -6055551#1 120478418#0 423615732#0 998360408#0 998360408#1 -47916243#1 -120478419#1 397315035#0 397315035#2 397315035#3"/>
    </vehicle>
	<vehicle id="38" depart="0.00">
        <route edges="203025090#2 -203025090#3 -203025090#1 297368443#0 146537579#0 130285135#0 397319284#0 397319281#0 436271294#0 409541717 535780677#0"/>
    </vehicle>
	<vehicle id="39" depart="0.00">
        <route edges="468469904#0 468469900#0 468469900#1 468469900#4 468469897#0 468469894#0 468469887 296355738#0 296355738#1 -468469890#3 -468469890#1 155011691#0 6056532#0 45838762#1 971624710 29961183#0 29961183#2"/>
    </vehicle>
</routes>
