<?xml version="1.0" encoding="UTF-8"?>
<!-- generated on 2022-10-26 03:14:41.820522 by $Id$ UNKNOWN
  options: -n /Users/nafiulhassan/veins-5.1/examples/veins/input/washingtondc/30/washingtondc.net.xml -s 2 -e 80 -o /Users/nafiulhassan/veins-5.1/examples/veins/input/washingtondc/seed-2/80/washingtondc.trips.xml
-->
<routes xmlns:xsi="http://www.w3.org/2001/XMLSchema-instance" xsi:noNamespaceSchemaLocation="http://sumo.dlr.de/xsd/routes_file.xsd">
    <trip id="0" depart="0.00" from="698748857#0" to="696198846#1"/>
    <trip id="1" depart="1.00" from="-296355738#0" to="-308739814#1"/>
    <trip id="2" depart="2.00" from="575569267#11" to="50009632"/>
    <trip id="3" depart="3.00" from="468469890#2" to="1008299672"/>
    <trip id="4" depart="4.00" from="423615732#0" to="421268132#0"/>
    <trip id="5" depart="5.00" from="397329570" to="-45838766#0"/>
    <trip id="6" depart="6.00" from="202992519#0" to="130889758#0"/>
    <trip id="7" depart="7.00" from="494988146#2" to="988487223"/>
    <trip id="8" depart="8.00" from="696806631#0" to="354079210"/>
    <trip id="9" depart="9.00" from="24222606" to="-6057581#4"/>
    <trip id="10" depart="10.00" from="-155011691#1" to="-130908283#1"/>
    <trip id="11" depart="11.00" from="297294789#0" to="1049230589"/>
    <trip id="12" depart="12.00" from="130889704#0" to="6052895#0"/>
    <trip id="13" depart="13.00" from="347003229#2" to="397317310#0"/>
    <trip id="14" depart="14.00" from="-575569267#10" to="-130889749#2"/>
    <trip id="15" depart="15.00" from="1054351817" to="-397360056#2"/>
    <trip id="16" depart="16.00" from="323742888" to="998360408#0"/>
    <trip id="17" depart="17.00" from="468469915#0" to="-468469900#0"/>
    <trip id="18" depart="18.00" from="6054252#2" to="509646034#0"/>
    <trip id="19" depart="19.00" from="50260020#4" to="6055551#0"/>
    <trip id="20" depart="20.00" from="50513886#1" to="509325916"/>
    <trip id="21" depart="21.00" from="130285136#0" to="961869114#0"/>
    <trip id="22" depart="22.00" from="837279711#2" to="-466359338#3"/>
    <trip id="23" depart="23.00" from="50429929" to="47916247#0"/>
    <trip id="24" depart="24.00" from="297273915#2" to="347003227"/>
    <trip id="25" depart="25.00" from="298825115#1" to="6058193#0"/>
    <trip id="26" depart="26.00" from="305660797#1" to="537114618#2"/>
    <trip id="27" depart="27.00" from="130285136#0" to="590581593#2"/>
    <trip id="28" depart="28.00" from="6054895#0" to="296365351#5"/>
    <trip id="29" depart="29.00" from="397321700#0" to="6057581#3"/>
    <trip id="30" depart="30.00" from="496467785#0" to="297401518#0"/>
    <trip id="31" depart="31.00" from="-520468342" to="1051018093#0"/>
    <trip id="32" depart="32.00" from="470165122" to="-468433797#3"/>
    <trip id="33" depart="33.00" from="6056363#0" to="-6057581#4"/>
    <trip id="34" depart="34.00" from="6056532#0" to="1033847613#0"/>
    <trip id="35" depart="35.00" from="70948801#2" to="476103801"/>
    <trip id="36" depart="36.00" from="321444899#0" to="323742930#1"/>
    <trip id="37" depart="37.00" from="468433797#0" to="397329575#0"/>
    <trip id="38" depart="38.00" from="1049226224#0" to="-50511365#3"/>
    <trip id="39" depart="39.00" from="323742930#2" to="6061944#0"/>
    <trip id="40" depart="40.00" from="438958617#7" to="-298814317#2"/>
    <trip id="41" depart="41.00" from="535520845#1" to="494175930#0"/>
    <trip id="42" depart="42.00" from="6056363#0" to="-476103806"/>
    <trip id="43" depart="43.00" from="50429908" to="-296365351#5"/>
    <trip id="44" depart="44.00" from="468433798#0" to="-6059056#2"/>
    <trip id="45" depart="45.00" from="-521198981" to="589539537#0"/>
    <trip id="46" depart="46.00" from="-382850737#1" to="333922765#0"/>
    <trip id="47" depart="47.00" from="589533515#2" to="-589539518#3"/>
    <trip id="48" depart="48.00" from="-50799230#2" to="589905511#0"/>
    <trip id="49" depart="49.00" from="131463018#0" to="47916248#0"/>
    <trip id="50" depart="50.00" from="-131052512#1" to="130772943#2"/>
    <trip id="51" depart="51.00" from="-468434115#1" to="468450580#0"/>
    <trip id="52" depart="52.00" from="-305660797#0" to="696806637#0"/>
    <trip id="53" depart="53.00" from="-130908059#2" to="49887645#0"/>
    <trip id="54" depart="54.00" from="-130802359#2" to="-6054255#1"/>
    <trip id="55" depart="55.00" from="520537749" to="-45838763#1"/>
    <trip id="56" depart="56.00" from="-469154540#1" to="469157092"/>
    <trip id="57" depart="57.00" from="130889756#3" to="-202992524#4"/>
    <trip id="58" depart="58.00" from="987878092" to="-436136927#6"/>
    <trip id="59" depart="59.00" from="-155011691#1" to="126303354#0"/>
    <trip id="60" depart="60.00" from="436136927#5" to="50428539#2"/>
    <trip id="61" depart="61.00" from="-397316180#1" to="120478695#3"/>
    <trip id="62" depart="62.00" from="-131052297#5" to="237743944#0"/>
    <trip id="63" depart="63.00" from="50524889#17" to="50260020#6"/>
    <trip id="64" depart="64.00" from="6055383#0" to="50429926"/>
    <trip id="65" depart="65.00" from="589533584#0" to="47471725#0"/>
    <trip id="66" depart="66.00" from="297380210#0" to="-520532363"/>
    <trip id="67" depart="67.00" from="468434122#0" to="1049226223#0"/>
    <trip id="68" depart="68.00" from="-352412093#2" to="203119345#0"/>
    <trip id="69" depart="69.00" from="589551073#0" to="-397327935#1"/>
    <trip id="70" depart="70.00" from="397354452#0" to="130889757#0"/>
    <trip id="71" depart="71.00" from="333922526#0" to="-423604888#1"/>
    <trip id="72" depart="72.00" from="74100353#0" to="-6054355#1"/>
    <trip id="73" depart="73.00" from="423615732#0" to="131052508#2"/>
    <trip id="74" depart="74.00" from="-130788195" to="397316523#0"/>
    <trip id="75" depart="75.00" from="-421061860" to="-296365351#1"/>
    <trip id="76" depart="76.00" from="-131052512#3" to="-466359338#3"/>
    <trip id="77" depart="77.00" from="-347003327#2" to="442066186#0"/>
    <trip id="78" depart="78.00" from="321477125#4" to="983121553#2"/>
    <trip id="79" depart="79.00" from="6062201#0" to="988487222"/>
</routes>
