<?xml version="1.0" encoding="UTF-8"?>

<!-- generated on 2022-10-26 03:15:34 by Eclipse SUMO duarouter Version 1.10.0
	<routes>

    <input>
        <net-file value="/Users/nafiulhassan/veins-5.1/examples/veins/input/washingtondc/30/washingtondc.net.xml"/>
        <route-files value="/Users/nafiulhassan/veins-5.1/examples/veins/input/washingtondc/seed-15/80/washingtondc.trips.xml"/>
    </input>

    <output>
        <output-file value="/Users/nafiulhassan/veins-5.1/examples/veins/input/washingtondc/seed-15/80/washingtondc.rou.xml"/>
        <alternatives-output value="/Users/nafiulhassan/veins-5.1/examples/veins/input/washingtondc/seed-15/80/washingtondc.rou.alt.xml"/>
    </output>

    <report>
        <ignore-errors value="true"/>
    </report>

</configuration>
-->

	<routes>
	<vehicle id="0" depart="0.00">
        <route edges="864614824#0 203119345#0 -468433803 -468433804 -130908282 -438960035#1 -468433805 -468433806#1 -6061944#3 126303354#0 126303354#2 175873836#0 397303090#0 397303092#0 130802371#0 126303362#0 -126303362#1"/>
    </vehicle>
	<vehicle id="1" depart="0.00">
        <route edges="503185206 583698431#0 50429922 -352412106 352412106 521221938 521198981 203119343 50429924 583698432 520537744 520537746 583705854 535520845#0 535520845#1 323742932 -126303366#1 469165486#0 469165487 469165488#0 590581668#0 590581668#2 1049842802#0 1049842803 1049842804 589539534#0 1049287312#0 1049287312#2 126303354#0 126303354#2 345709542#0 1048676964#0 298848145#0 130285121#0 508158271 508158272#0 130889749#0 130889749#2 397316524#0 -397316522 -298814317#2 468433794 397319278#0 298814316 454817812 -24238018#5 -24238018#1 -45838764#1"/>
    </vehicle>
	<vehicle id="2" depart="0.00">
        <route edges="983121554#6 983121554#7 983121554#9 469159256#0 469159256#3 469159259 469159258#0 469159258#1 469159258#2 468469919#0 468469927#0 468469927#2 460536376#0 468469923#0 468469931#0 468469935#0 468469935#2 468469943#0 468469939#0 468469946#0 200019461#0 130788195 130788190 -130788190"/>
    </vehicle>
	<vehicle id="3" depart="0.00">
        <route edges="589905639 509325916 476103804 476103801 321477125#6 520537743#0 520537743#1 354436361#0 354436361#1 354436361#2 583698434 583698432 520537744 520537746 583705854 535520845#0 535520845#1 535520845#2 352412093#0 -352411913#1 -354202945#1 476103809#0 298832254#0 298832261#0 298832240 864614823#0 864614823#2 468469923#0"/>
    </vehicle>
	<vehicle id="4" depart="0.00">
        <route edges="589533518#3 589533518#4 589533518#5 50797098#0 50797098#3 50797098#6 50797098#8 543712269#0 543712269#2 -537114618#4 -537114618#2 -537114618#1 -468434115#1 -923370378#11 -923370378#9 -923370378#7 -923370378#6 -923370378#4 -923370378#2 -923370378#0 -6055551#1 120478418#0 423615732#0 998360408#0 998360408#1"/>
    </vehicle>
	<vehicle id="5" depart="0.00">
        <route edges="-575569267#4 575569267#3 575569267#5 575569267#7 575569267#9 -125568108#4 -125568108#2 -125568108#1 -130788190 -130788195 435424520#0 -420781368#1 -920893151#1 -6057581#6 -6057581#5 -6057581#4 -6057581#3 -6057581#2 -6057581#1 954271698#0 988196201#0 6057595#0 -202992519#2 -468441158#1 -468441885#1 -468441884 120478695#5"/>
    </vehicle>
	<vehicle id="6" depart="0.00">
        <route edges="47916245#0 120478529#0 120478529#1 1049253134 45839048#0 50511237#0 297296770#0 -155011691#1 -29961175#1 -988196201#2 -6062204"/>
    </vehicle>
	<vehicle id="7" depart="0.00">
        <route edges="-6057544#5 6057544#3 130908059#0 120478695#0 120478695#3 120478695#4 120478695#5 468441885#0 468441885#2 202992519#0 -6057595#2 -988196201#2 -6062204 6062876#0 509325421 468450542 130285122#0 126303355#0 -756406654#1 -347003227 -468433791#1 -521200399"/>
    </vehicle>
	<vehicle id="8" depart="0.00">
        <route edges="589533518#3 589533518#4 589533518#5 50797098#0 50797098#3 50797098#6 50797098#8 130889756#7 130889757#0 698748857#0 589539536#0 589539536#2 589539536#3"/>
    </vehicle>
	<vehicle id="9" depart="0.00">
        <route edges="514191883#0 120478695#3 120478695#4 120478695#5 468441885#0 468441885#2 202992519#0 589551087#0 -296355738#2 -296355738#0 -468469887 -468469894#1 -520468343#3"/>
    </vehicle>
	<vehicle id="10" depart="0.00">
        <route edges="6058793#0 1049842802#0 1049842803 1049842804 589539534#0 1049287312#0 1049287312#2 126303354#0 126303354#2 345709542#0 1048676964#0 298848145#0 1047793071 298814315#0 508158270#0 421268132#0 321444902#3"/>
    </vehicle>
	<vehicle id="11" depart="0.00">
        <route edges="-537114618#1 537114618#0 537114618#2 537114618#3 537114618#5 537114618#6 537114618#9 469165490#0 469165490#2 590581668#0 590581668#2 1049842802#0 1049842803 1049842804 589539534#0 1049287312#0 1049287312#2 126303354#0 126303354#2 345709542#0 1048676964#0 298848145#0 1047793071 298814315#0 508158270#0 421268132#0 439875857#0 590598870#0 509326776#0 650605162 6062204 988196201#0 6057595#0 202992520#2 202992520#3 -590581593#5 -590581593#3 -590581593#1 274292550#0"/>
    </vehicle>
	<vehicle id="12" depart="0.00">
        <route edges="131052515 155011689#0 -297296749#2 297296770#0 6056532#0 45838762#1 6062201#0 -130788155#2 -434444693#2 -509646034#1 -352412073 -47920785#1 -352412039#1 -298815729#1 -476103813#1 -352412083 -126303356#1 -298832261#2 -298832254#2"/>
    </vehicle>
	<vehicle id="13" depart="0.00">
        <route edges="397319284#0 542269372#0 589533564#0 589539521#0 70948801#0 70948801#2 70948801#3 439875858#1 439875858#4 439875858#6 439875858#8 516085385 509646035#0 509646035#2 130788204#0 435424522#2 435424522#4 48018661#0 130772931#1"/>
    </vehicle>
	<vehicle id="14" depart="0.00">
        <route edges="397321704#0 397321703#0 131076063#0 589539520#0 -333922526#3 -333922526#1 -50260020#7 -50260020#5 -50260020#3 -50260020#1 130927087#0 468433793#0 354079210 468433792#0 347003228#0 347003229#0 347003229#2 589551073#0 1051018092#0 345633934 1051018093#0 6060903#0"/>
    </vehicle>
	<vehicle id="15" depart="0.00">
        <route edges="466359340#1 535462248 421075190#0 421075190#1 421075190#2 421075190#3 345633935#0 345633935#3 345633935#5 345633935#7 888235719#0 888235719#3 50797098#0 130908289#9 130908289#11"/>
    </vehicle>
	<vehicle id="16" depart="0.00">
        <route edges="589539518#0 -589539518#1 -347003329#2 -333922526#3 -333922526#1 333922462#0 648026207#0 321444900 321444898 321444899#0 130788192#0 130788195 308739814#0 435424522#0 435424522#2 435424522#4 48018661#0 130772931#1 575569268 130772928#0 121863780#0 121863780#1 988487224#0 988487222 988487223"/>
    </vehicle>
	<vehicle id="17" depart="0.00">
        <route edges="298829677#0 70948803#0 397316176#0 397316171 397316180#0 397316186#0 397316195#0 397316204#0 347003327#0 397327124#0 468433796 397327121#0 347003229#0 347003229#2 589551073#0 1051018092#0 345633934 1051018093#0 589539535#0 589533502#0 468434122#0 468434122#2 695842775"/>
    </vehicle>
	<vehicle id="18" depart="0.00">
        <route edges="-130788227#1 -421037430#2 6056532#0 45838762#1 971624710 6062876#0 509325421 468450542 130285122#0 126303355#0 347003228#0 347003229#0 347003229#2 589551073#0 1051018092#0 345633934 1051018093#0 589539535#0 589533502#0 468434122#0 468434122#2 695842775 469157093 469157092 1048252755#0 589533511 520537739 -421076402"/>
    </vehicle>
	<vehicle id="19" depart="0.00">
        <route edges="-468434115#1 -923370378#11 -923370378#9 -923370378#7 -923370378#6 -923370378#4 -923370378#2 -923370378#0 -6055551#1 -468434116#1 6062397#0 6063274#0"/>
    </vehicle>
	<vehicle id="20" depart="0.00">
        <route edges="469159258#1 469159258#2 468469919#0 468469927#0 468469927#2 460536376#0 468469923#0 468469931#0 468469935#0 468469935#2 468469943#0 -479469615#3 479469615#0"/>
    </vehicle>
	<vehicle id="21" depart="0.00">
        <route edges="-920636360#1 -397355101 509640269 920636360#0 589551072#0 6063274#0 1049303874#0 130889755#0 130889756#0 130889756#3 130889756#5 130889756#7 130889757#0 698748857#0 589539536#0 589539536#2 589539536#3 589539536#4 590581668#0 590581668#2 1049842802#0 1049842803 1049842804 589539534#0 1049287312#0 1049287312#2 126303354#0 126303354#2 345709542#0 1048676964#0 -347003327#2 -397316204#2 -397316195#1 -397316186#1 -397316180#1 -397316171 -397316176#1 -70948803#2 468450576#0 535780677#0 298825115#1"/>
    </vehicle>
	<vehicle id="22" depart="0.00">
        <route edges="6051343 321477125#0 321477125#3 321477125#4 321477125#5 321477125#6 520537743#0 520537743#1 354436361#0 354436361#1 354436361#2 583698434 583698432 520537744 520537746 583705854 535520845#0 535520845#1 535520845#2 352412093#0 -352411913#1 -354202945#1 476103809#0 298832254#0 298832261#0 126303356#0 476103811 -352412083"/>
    </vehicle>
	<vehicle id="23" depart="0.00">
        <route edges="-397316204#2 397316204#0 347003327#0 397327124#0 468433796 397327121#0 203119342#0 468433795#0 -468433795#1 -203119342#1"/>
    </vehicle>
	<vehicle id="24" depart="0.00">
        <route edges="297296762#0 50511237#0 297296770#0 6056532#0 6057581#0 6057581#2 6057581#3 6057581#4 6057581#5 6057581#6 920893151#0 420781368#0 435424521#0 130788190 125568108#0 125568108#2 125568108#3 575569267#11 575569267#13 575569267#15"/>
    </vehicle>
	<vehicle id="25" depart="0.00">
        <route edges="397317310#0 397319284#0 397319281#0 421734517#0 298814317#0 -347003330#3 397316186#0 397316195#0 397316204#0 347003327#0 397327124#0 468433796 397327121#0 203119342#0 468433795#0 723610179 -476103813#1 -352412083 -126303356#1 -298832261#2 -298832254#2 -476103809#1 354202945#0 352411913#0 130908283#0"/>
    </vehicle>
	<vehicle id="26" depart="0.00">
        <route edges="305660797#3 469165490#0 469165490#2 590581668#0 590581668#2 1049842802#0 1049842803 1049842804 589539534#0 1049287312#0 1049287312#2 126303354#0 126303354#2 345709542#0 1048676964#0 298848145#0 1047793071 298814315#0 508158270#0 421268132#0 439875857#0 590598870#0 509326776#0 650605162 6062204 988196201#0 29961175#0 468469890#0 -468469890#1"/>
    </vehicle>
	<vehicle id="27" depart="0.00">
        <route edges="696737929#1 696737929#2 130802360#0 130802360#1 469159255 353283534#0 353283534#1 323742931 126303364 323742932 -126303366#1 469165486#0 469165487 469165488#0 590581668#0 590581668#2 1049842802#0 1049842803 1049842804 589539534#0 1049287312#0 1049287312#2 126303354#0 126303354#2 345709542#0 1048676964#0 298848145#0 130285121#0"/>
    </vehicle>
	<vehicle id="28" depart="0.00">
        <route edges="-537114618#8 537114618#6 543712321#0 1033847612#0 1033847614#0 1033847614#3 1033847615#0"/>
    </vehicle>
	<vehicle id="29" depart="0.00">
        <route edges="535780677#2 6055389#0 397316203#0 70948803#0 397316176#0 397316171 397316180#0 397316186#0 397316195#0 397316204#0 347003327#0 397327124#0 468433796 397327121#0 347003229#0 347003229#2 589551073#0 1051018092#0 345633934 1051018093#0 589539535#0 589533502#0 468434122#0 468434122#2 695842775 469157093 469157092 1048252755#0 589533511 520537739 589905634 466349884 1049230589"/>
    </vehicle>
	<vehicle id="30" depart="0.00">
        <route edges="6055551#0 923370378#0 923370378#1 923370378#3 923370378#5 923370378#7 923370378#8 923370378#10 468434115#0 537114618#0 537114618#2 537114618#3 537114618#5 537114618#6 537114618#9 469165490#0 469165490#2 590581668#0 590581668#2 1049842802#0 1049842803 1049842804 589539534#0 1049287312#0 1049287312#2 126303354#0 126303354#2 345709542#0 1048676964#0 298848145#0 130285121#0 508158271 508158272#0 130889749#0 130889749#2 397316524#0 -397316522 347003330#4 589533563#0 589539518#0 589539518#2 297380210#0 297380210#2 -297380214#6 -297380214#2 -397329572#1 -397329570 -397329575#1 120478695#0"/>
    </vehicle>
	<vehicle id="31" depart="0.00">
        <route edges="203119343 50429924 583698432 520537744 520537746 583705854 535520845#0 535520845#1 323742932 -126303366#1 469165486#0 469165487 469165488#0 590581668#0 590581668#2 1049842802#0 1049842803 1049842804 589539534#0 1049287312#0 1049287312#2 126303354#0 126303354#2 345709542#0 1048676964#0 298848145#0 130285121#0 508158271 508158272#0 50260020#0 50260020#2 50260020#4 50260020#6 -297382770#5"/>
    </vehicle>
	<vehicle id="32" depart="0.00">
        <route edges="6056363#0 6056363#2 6056363#3 130889760#0 6056366#3 130889756#0 130889756#3 130889756#5 130889756#7 130889757#0 698748857#0 589539536#0 589539536#2 589539536#3 589539536#4 590581668#0 590581668#2 1049842802#0 1049842803 1049842804 589539534#0 1049287312#0 1049287312#2 126303354#0 126303354#2 345709542#0 1048676964#0 298848145#0 130285121#0 508158271 508158272#0 130889749#0 130889749#2 397316524#0 -397316522 -298814317#2 468433794 397319278#0 298814316 454817812 146537575#0 397319276 509649677 397317304 397317307#0 297444235#0 -509645504#3 509645504#2"/>
    </vehicle>
	<vehicle id="33" depart="0.00">
        <route edges="297380211#0 514191883#0 -120478695#2 397329575#0 397329570 397329572#0 297380214#0 297380214#3 -297380210#3 -297380210#1 -589539518#3 -589539518#1 -589533563#2 -347003330#6 397316523#0 -397316522"/>
    </vehicle>
	<vehicle id="34" depart="0.00">
        <route edges="298832235#4 48018653 130772956#0 -130772954 -126303361#7 -126303361#4 -126303361#1 -421077027 -723610179 -468433795#1 -203119342#1 347003229#0 347003229#2 589551073#0 1051018092#0 345633934 1051018093#0 589539535#0 589533502#0 468434122#0 468434122#2 695842776#0 695842776#1 520537745 466349883 583705855 469165475 130802360#0"/>
    </vehicle>
	<vehicle id="35" depart="0.00">
        <route edges="575569268 130772928#0 121863780#0 121863780#1 988487224#0 48018630 988487225#0 130889704#0 130889704#1 837279711#0 -468433798#1 -468433799#1 -468433799#0 -468433800 -468433803 -468433804 -298832254#2 -476103809#1 -520532363 -6060903#4 -6060903#2 -6060903#1 589539535#0 589533502#0 469165486#0 469165487 469165488#0 -469165489#1 -469165490#1 -537114618#10 -537114618#8 -537114618#5 -537114618#4 -537114618#2 6062881#0 985067151 130285133#0-AddedOnRampEdge 130285133#0 6056363#0 6056363#2 6056363#3 203119341#0 696806636#0 696806637#0 130908292#0 130908292#2 130908292#3 -6053702#4 -6053702#2 -6053702#1 469151751 423602319#0 6059056#0 6059056#2 6059056#3"/>
    </vehicle>
	<vehicle id="36" depart="0.00">
        <route edges="50428549 989844901#0 6055382#0 687108617#0 435106239#0 469154542 6057417#0 6056366#0 6056366#3 130889756#0 130889756#3 130889756#5 130889756#7 130889757#0 698748857#0 589539536#0 589539536#2 589539536#3 589539536#4 590581668#0 590581668#2 1049842802#0 1049842803 1049842804 589539534#0 1049287312#0 1049287312#2 126303354#0 126303354#2 345709542#0 1048676964#0 298848145#0 1047793071 298814315#0 508158270#0 468433793#0 354079210 468433792#0 -756406654#1"/>
    </vehicle>
	<vehicle id="37" depart="0.00">
        <route edges="-202992522#1 202992519#0 -6057595#2 -988196201#2 -6062204 6062876#0 509325421 468450542 130285122#0 126303355#0 347003228#0 347003229#0 347003229#2 589551073#0 1051018092#0 345633934 1051018093#0 589539535#0 589533502#0 469165486#0 469165487 469165488#0 -469165489#1 -469165490#1 -537114618#10 -537114618#8 -537114618#5 -537114618#4 -537114618#2 6062881#0 985067151 130285133#0-AddedOnRampEdge 130285133#0 6056363#0 6056363#2 6056363#3 203119341#0 696806636#0 696806637#0 130908292#0 130908292#2 130908292#3 -6053702#4 6053702#3"/>
    </vehicle>
	<vehicle id="38" depart="0.00">
        <route edges="695842775 469157093 583698433#0 6056069#0 589533583#0 589539536#0 589539536#2 589539536#3 589539536#4 590581668#0 590581668#2 1049842802#0 1049842803 1049842804 589539534#0 1049287312#0 1049287312#2 126303354#0 126303354#2 345709542#0 1048676964#0 298848145#0 130285121#0 508158271 508158272#0 130889749#0 130889749#2 397316524#0 -397316522 -298814317#2 468433794 397319278#0 298814316 454817812 146537575#0 397319276 297456132#0 397324964#0 397324962 146537578#0 -297294789#2 -45838766#2 -45838766#0"/>
    </vehicle>
	<vehicle id="39" depart="0.00">
        <route edges="305660797#0 -305660797#0 -1054351818#1 421259825#0 74100353#0 508158273 508158270#0 421268132#0 439875857#0 590598870#0 509326776#0 650605162 6062204 988196201#0 6057595#0 202992520#2 202992520#3 -590581593#5 -590581593#3 -590581593#1 -297380211#8 297380211#7"/>
    </vehicle>
	<vehicle id="40" depart="0.00">
        <route edges="927598886#0 50513886#0 50513886#1 297273916#0 297273916#2 297285722#0 297294784#0 513235538#0 297294791#0 297294792#0 589905511#0 120478695#0 120478695#3 120478695#4 120478695#5 468441885#0 468441885#2 202992522#0 202992522#2 202992524#0 -202992524#2"/>
    </vehicle>
	<vehicle id="41" depart="0.00">
        <route edges="-296786737#1 305660797#3 469165490#0 469165490#2 590581668#0 590581668#2 1049842802#0 1049842803 1049842804 589539534#0 1049287312#0 1049287312#2 126303354#0 126303354#2 345709542#0 1048676964#0 298848145#0 1047793071 298814315#0 508158270#0 421268132#0 439875858#1 439875858#4 439875858#6 439875858#8 516085385 509646035#0 509646035#2 130788204#0 130788207#0 130788207#2 575569267#7 575569267#9"/>
    </vehicle>
	<vehicle id="43" depart="0.00">
        <route edges="50799230#7 -50799230#8 -50799230#6 -50799230#5 -50799230#2 -50799230#1 6057204#0 985426725#0 985426724 468436769#0 6056069#0 589533583#0 589539536#0 589539536#2 589539536#3 589539536#4 590581668#0 590581668#2 1049842802#0 1049842803 1049842804 589539534#0 1049287312#0 1049287312#2 126303354#0 126303354#2 345709542#0 1048676964#0 298848145#0 1047793071 298814315#0 508158270#0 421268132#0 439875857#0 590598870#0 321444898 321444899#0 130788192#0 435424520#0 -420781368#1 -854143897#2 -397363850#2 397363850#1"/>
    </vehicle>
	<vehicle id="44" depart="0.00">
        <route edges="469165475 130802360#0 130802360#1 469159255 353283535#0 353283535#2 469159257#0 469159256#0 469159256#3 469159259 469159258#0 469159258#1 469159258#2 468469919#0 468469927#0 468469927#2 460536376#0 468469923#0 468469931#0 468469935#0 468469935#2 468469943#0 468469939#0 468469946#0 200019461#0 435424520#0 -420781368#1 -920893151#1 -6057581#6 -6057581#5 -6057581#4 -6057581#3 -6057581#2 -6057581#1 954271698#0 988196201#0 6057595#0 -202992519#2 -468441158#1 -468441885#1 -468441884 -120478695#4 -120478695#3 -120478695#2 -589905511#3 -297294792#2 -297294791#2 -513235538#2 -6054255#8 -6054255#6 -6054255#5 -6054255#2 -6054255#1"/>
    </vehicle>
	<vehicle id="45" depart="0.00">
        <route edges="-305660797#4 305660797#3 469165490#0 469165490#2 590581668#0 590581668#2 1049842802#0 1049842803 1049842804 589539534#0 -469165492#2 -469165492#1 6060903#0 6060903#2 6060903#3 520532363 476103809#0 298832254#0 298832261#0 126303356#0 -126303356#1"/>
    </vehicle>
	<vehicle id="46" depart="0.00">
        <route edges="120478695#4 120478695#5 468441885#0 468441885#2 202992519#0 -6057595#2 29961175#0 155011691#0 6056532#0 6057581#0 6057581#2 6057581#3 6057581#4 6057581#5 6057581#6 920893151#0 420781368#0 435424521#0 308739814#0 435424522#0 435424522#2 435424522#4 48018661#0 130772931#1 575569268 130772928#0 121863780#0 121863780#1 988487224#0 48018630 988487225#0 130889704#0 130889704#1 837279711#0 837279711#2 837279711#4 1051205229#0 1051205229#1 130889702#0 130889702#3 130889702#4 1052908775#0 130889705#0 130889705#2 697824964#0 454815093#0 696806633#0 696806633#2 590605528#0 590605528#2 590605528#3 466359339#0"/>
    </vehicle>
	<vehicle id="47" depart="0.00">
        <route edges="130889702#4 1052908775#0 983121554#4 983121554#6 983121554#7 983121554#9 469159256#0 469159256#3 469159259 469159258#0 469159258#1 469159258#2 468469919#0 468469927#0 468469927#2 460536376#0 468469923#0 468469931#0 -126303361#4 -126303361#1 126303361#0"/>
    </vehicle>
	<vehicle id="48" depart="0.00">
        <route edges="436136929#2-AddedOnRampEdge 436136929#2 438964977 130908283#0 130908283#1 130908283#2 130908283#3 6058793#0 1049842802#0 1049842803 1049842804 589539534#0 1049287312#0 1049287312#2 126303354#0 126303354#2 345709542#0 1048676964#0 -347003327#2 -397316204#2 -397316195#1 -397316186#1 -397316180#1 -397316171 -397316176#1 47471725#0"/>
    </vehicle>
	<vehicle id="49" depart="0.00">
        <route edges="421075190#1 421075190#2 421075190#3 345633935#0 345633935#3 345633935#5 345633935#7 888235719#0 888235719#3 50797098#0 130908289#9 130908289#11 1033847614#3 1033847615#0"/>
    </vehicle>
	<vehicle id="50" depart="0.00">
        <route edges="535546520#0 535546520#3 347003226 521200399 468433791#0 347003227 756406654#0 -468433792#1 -354079210 -468433793#1 -130927087#2 130889749#0 130889749#2 397316524#0 -397316522 -298814317#2 468433794 397319278#0 298814316 454817812 146537575#0 397319276 297456132#0 397324964#0 397324962 146537578#0 297294784#0 513235538#0"/>
    </vehicle>
	<vehicle id="51" depart="0.00">
        <route edges="6054252#2 130889684#0 509326252#0 296971737#0 -130907982#1 -6053702#4 -6053702#2 -6053702#1 6053702#0"/>
    </vehicle>
	<vehicle id="52" depart="0.00">
        <route edges="-130788167#0 130802362#0 130802362#1 466359340#0 466359340#1 535462248 421075190#0 421075190#1 421075190#2 421075190#3 543909823#0 985426725#0 985426724 468436769#0 -130285136#2 -468436770 -698748856#1 698748856#0 468436770"/>
    </vehicle>
	<vehicle id="53" depart="0.00">
        <route edges="130285088#0 469165485#0 442066186#0 353283534#0 353283534#1 323742931 126303364 323742932 -126303366#1 469165486#0 469165487 469165488#0 590581668#0 590581668#2 1049842802#0 1049842803 1049842804 589539534#0 1049287312#0 1049287312#2 126303354#0 126303354#2 345709542#0 1048676964#0 298848145#0 130285121#0 508158271 508158272#0 130889749#0"/>
    </vehicle>
	<vehicle id="54" depart="0.00">
        <route edges="345633934 1051018093#0 589539535#0 589533502#0 469165486#0 469165487 469165488#0 -469165489#1 -469165490#1 -537114618#10 -537114618#8 -537114618#5 -537114618#4 -537114618#2 6062881#0 985067151 130285133#0-AddedOnRampEdge 130285133#0 6056363#0 6056363#2 6056363#3 203119341#0 696806636#0 696806637#0 130908292#0 130908292#2 130908292#3 -6053702#4 -6053702#2 -6053702#1 -423604888#1"/>
    </vehicle>
	<vehicle id="55" depart="0.00">
        <route edges="-589551092#1 -589551092#0 146537587#0 397324962 297368443#0 146537579#0 130285135#0 397319284#0 397319281#0 421734517#0 298814317#0 -347003330#3 347003328#0 -397303092#2 -397303090#1 -175873836#2 130802372#0 130802372#3 589551073#0 1051018092#0 345633934 1051018093#0 589539535#0 -130908283#4 -130908283#2 -130908283#1 -130908283#0 -438964977 -466359338#3 -466359338#1 -983121554#11 -983121554#7 -983121554#6 983121554#6"/>
    </vehicle>
	<vehicle id="56" depart="0.00">
        <route edges="120478694#0 535718852#0 45838763#0 397316203#0 70948803#0 397316176#0 397316171 397316180#0 397316186#0 397316195#0 397316204#0 74100353#0 508158273 508158270#0 421268132#0 439875857#0 590598870#0 509326776#0 650605162 6062204 988196201#0 29961175#0 155011691#0 6056532#0"/>
    </vehicle>
	<vehicle id="57" depart="0.00">
        <route edges="469154543 397360055#0 509326252#0 50431292#0 6057417#0 130908289#0 130908289#3 130908289#5 130908289#6 130908289#7 130908289#9 130908289#11 921887474#0 496467785#0 421076400#0 1048252755#0"/>
    </vehicle>
	<vehicle id="58" depart="0.00">
        <route edges="1051018092#0 345633934 1051018093#0 6060903#0 6060903#2 6060903#3 520532363 476103809#0 298832254#0 298832261#0 126303356#0 476103811 476103813#0 298815729#0 352412039#0 47920785#0 50429906 49999716#2 50429908 50429907 421077028#0"/>
    </vehicle>
	<vehicle id="59" depart="0.00">
        <route edges="476103804 476103801 321477125#6 520537743#0 520537743#1 354436361#0 354436361#1 354436361#2 583698434 583698432 520537744 520537746 583705854 535520845#0 535520845#1 535520845#2 352412093#0 -352411913#1 -354202945#1 476103809#0 298832254#0 298832261#0 298832240 864614823#0 864614823#2 298832235#0 298832235#3 298832235#4 48018653 48018648#0 468469915#0 468469915#1 130772931#1 575569268 130772928#0 121863780#0"/>
    </vehicle>
	<vehicle id="60" depart="0.00">
        <route edges="-296365351#5 296365351#5 296365351#6 514191882#0 514191883#0 120478695#3 120478695#4 120478695#5 468441885#0 468441885#2 202992519#0 -6057595#2 -988196201#2 -6062204 6062876#0 509325421 468450542 130285122#0 126303355#0 347003228#0 347003229#0 347003229#2 589551073#0 1051018092#0 345633934 1051018093#0 589539535#0 589533502#0 469165486#0 469165487 469165488#0 -469165489#1 -469165490#1 -537114618#10 -537114618#8 -537114618#5 -537114618#4 -537114618#2 -537114618#1 -468434115#1"/>
    </vehicle>
	<vehicle id="61" depart="0.00">
        <route edges="589533564#0 -347003330#6 -347003330#3 347003328#0 -397303092#2 -397303090#1 -175873836#2 130802372#0 130802372#3 589551073#0 1051018092#0 345633934 1051018093#0 589539535#0 589533502#0 468434122#0 468434122#2 695842775 469157093 583698433#0 696806631#0 -496467787#1 496467787#0"/>
    </vehicle>
	<vehicle id="62" depart="0.00">
        <route edges="-397304549#1 397315033#0 298829677#0 468450576#0 397319283 397319278#0 298814316 454817812 542269372#0"/>
    </vehicle>
	<vehicle id="64" depart="0.00">
        <route edges="6054254#0 50431292#0 6057417#0 6056366#0 6056366#3 130889756#0 130889756#3 130889756#5 130889756#7 130889757#0 698748857#0 589539536#0 589539536#2 589539536#3 589539536#4 590581668#0 590581668#2 1049842802#0 1049842803 1049842804 589539534#0 1049287312#0 1049287312#2 126303354#0 126303354#2 345709542#0 1048676964#0 298848145#0 130285121#0 508158271 508158272#0 130889749#0 130889749#2 397316524#0 -397316522 347003330#4 589533563#0 589539518#0 589539518#2 297380210#0 297380210#2 589539537#0 397327934#0 397327932#0 397327939#0 397327938 397327933 397327935#0 397327936#0 397327937#0 -397327937#1"/>
    </vehicle>
	<vehicle id="65" depart="0.00">
        <route edges="-347003330#6 397316523#0 -397316524#1 -130889749#2 -130889749#1 130927087#0 421268132#0 439875857#0 590598870#0 321444898 321444899#0 130788192#0 130788195 130788190 125568108#0 125568108#2 125568108#3 125568108#5"/>
    </vehicle>
	<vehicle id="66" depart="0.00">
        <route edges="50428539#2 50428539#3 50428539#5 589533504#0 509326127#0 50524889#0 589533518#2 589533518#3 589533518#4 589533518#5 50797098#0 130908289#9 130908289#11 921887474#0 496467785#0 421076400#0 1048252755#0 589533511 354436361#0 354436361#1 354436361#2"/>
    </vehicle>
	<vehicle id="67" depart="0.00">
        <route edges="297456132#0 397324964#0 397324962 297368443#0 146537579#0 130285135#0 397319284#0 397319281#0 436271294#0 409541717 50799606#0 397319279#0 397319282#0 397319286#0 -305368640#1 -998360408#3 -998360408#0 -397304550 -120478418#2 6055551#0"/>
    </vehicle>
	<vehicle id="68" depart="0.00">
        <route edges="130889759#2 590605528#0 590605528#2 590605528#3 696737929#0 696737929#1 696737929#2 130802360#0 130802360#1 469159255 353283535#0 353283535#2 469159257#0 469159256#0 469159256#3 469159259 469159258#0 469159258#1 469159258#2 468469919#0 468469927#0 468469927#2 460536376#0 468469923#0 468469931#0 468469935#0 468469935#2 468469943#0 468469939#0 468469946#0 200019461#0 435424520#0 -420781368#1 397327118#0 131520206#0 509325421"/>
    </vehicle>
	<vehicle id="69" depart="0.00">
        <route edges="-120478695#4 120478695#4 120478695#5 468441885#0 468441885#2 202992519#0 -6057595#2 -988196201#2 -6062204 6062876#0 509325421 468450542 130285122#0 126303355#0 347003228#0 347003229#0 347003229#2 589551073#0 1051018092#0 345633934 1051018093#0 589539535#0 589533502#0 468434122#0 468434122#2 695842775 469157093 469157092 468434120#0 345633935#0 50799230#0 50799230#2 50799230#4 50799230#6 50799230#7 50799230#9"/>
    </vehicle>
	<vehicle id="70" depart="0.00">
        <route edges="-438958617#8 438958617#7 438958617#9 961869114#0 496467785#0 985426724 468436769#0 6056069#0 589533583#0 589539536#0 589539536#2 589539536#3 589539536#4 590581668#0 590581668#2 1049842802#0 1049842803 1049842804 589539534#0 1049287312#0 1049287312#2 126303354#0 126303354#2 345709542#0 1048676964#0 397327124#0 468433796 397327121#0 203119342#0 468433795#0"/>
    </vehicle>
	<vehicle id="71" depart="0.00">
        <route edges="575569267#7 -575569267#8 -575569267#6 -575569267#4 520463951#0 520463951#2 479469615#0 535546520#0 535546520#3 347003226 -352412039#1 -298815729#1 -723610179 -468433795#1 -203119342#1 203119342#0 468433795#0"/>
    </vehicle>
	<vehicle id="72" depart="0.00">
        <route edges="397327937#0 -397327937#1 -397327936#1 -397327935#1 -397327933 -397327938 -397327939#1 -397327932#1 -397327934#2 -397318412#1 -397318414#1 -397318410#1 -397318411#1 397318416#0 397318415#0 397318413 468433794 436271294#0 409541717 50799606#0 397319279#0 397319282#0 397319286#0 -305368640#1 397304549#0"/>
    </vehicle>
	<vehicle id="73" depart="0.00">
        <route edges="50429925 352412100 130889761 583698434 583698432 520537744 520537746 583705854 535520845#0 535520845#1 535520845#2 352412093#0 -352411913#1 -354202945#1 476103809#0 298832254#0 298832261#0 126303356#0 476103811 476103813#0 298815729#0 352412039#0 47920785#0 352412073 509646034#0 434444693#0 130788192#0 130788195"/>
    </vehicle>
	<vehicle id="74" depart="0.00">
        <route edges="-537114618#4 537114618#3 537114618#5 537114618#6 537114618#9 469165490#0 469165490#2 590581668#0 590581668#2 1049842802#0 1049842803 1049842804 589539534#0 1049287312#0 1049287312#2 126303354#0 126303354#2 345709542#0 1048676964#0 -347003327#2 -397316204#2 397316204#0"/>
    </vehicle>
	<vehicle id="75" depart="0.00">
        <route edges="345633935#5 438958617#9 961869114#0 496467785#0 985426724 468436769#0 6056069#0 589533583#0 589539536#0 589539536#2 589539536#3 589539536#4 590581668#0 590581668#2 1049842802#0 1049842803 1049842804 589539534#0 1049287312#0 1049287312#2 126303354#0 126303354#2 345709542#0 1048676964#0 298848145#0 130285121#0 508158271 508158272#0 130889749#0 130889749#2 397316524#0 -397316524#1"/>
    </vehicle>
	<vehicle id="76" depart="0.00">