<?xml version="1.0" encoding="UTF-8"?>
<!-- generated on 2022-10-26 03:15:40.082469 by $Id$ UNKNOWN
  options: -n /Users/nafiulhassan/veins-5.1/examples/veins/input/washingtondc/30/washingtondc.net.xml -s 17 -e 30 -o /Users/nafiulhassan/veins-5.1/examples/veins/input/washingtondc/seed-17/30/washingtondc.trips.xml
-->
<routes xmlns:xsi="http://www.w3.org/2001/XMLSchema-instance" xsi:noNamespaceSchemaLocation="http://sumo.dlr.de/xsd/routes_file.xsd">
    <trip id="0" depart="0.00" from="345709542#0" to="520468342"/>
    <trip id="1" depart="1.00" from="756406654#0" to="-920636360#1"/>
    <trip id="2" depart="2.00" from="50524889#3" to="469165492#2"/>
    <trip id="3" depart="3.00" from="468434122#2" to="-397315035#2"/>
    <trip id="4" depart="4.00" from="-130908283#0" to="130889702#3"/>
    <trip id="5" depart="5.00" from="50429917" to="-590581593#5"/>
    <trip id="6" depart="6.00" from="305660797#2" to="1049226224#0"/>
    <trip id="7" depart="7.00" from="583705855" to="695842775"/>
    <trip id="8" depart="8.00" from="130908289#3" to="998338690#6"/>
    <trip id="9" depart="9.00" from="-296786737#1" to="520537743#0"/>
    <trip id="10" depart="10.00" from="589551086#0" to="-436136927#6"/>
    <trip id="11" depart="11.00" from="476103811" to="397316524#0"/>
    <trip id="12" depart="12.00" from="698748856#0" to="-50799230#1"/>
    <trip id="13" depart="13.00" from="354202945#0" to="590581593#0"/>
    <trip id="14" depart="14.00" from="466349884" to="1033847613#0"/>
    <trip id="15" depart="15.00" from="-305368640#1" to="6063421#1"/>
    <trip id="16" depart="16.00" from="297380211#0" to="988487225#0"/>
    <trip id="17" depart="17.00" from="-421077027" to="520537743#0"/>
    <trip id="18" depart="18.00" from="520537749" to="6057581#3"/>
    <trip id="19" depart="19.00" from="-130788195" to="130788207#6"/>
    <trip id="20" depart="20.00" from="-26572919#2" to="50429920"/>
    <trip id="21" depart="21.00" from="130285138#0" to="70948803#0"/>
    <trip id="22" depart="22.00" from="130802372#0" to="50524890#8"/>
    <trip id="23" depart="23.00" from="589539522#0" to="-575569267#16"/>
    <trip id="24" depart="24.00" from="397318411#0" to="70948801#0"/>
    <trip id="25" depart="25.00" from="347003328#0" to="130772931#1"/>
    <trip id="26" depart="26.00" from="-6057581#6" to="508158271"/>
    <trip id="27" depart="27.00" from="-47916246#3" to="421076402"/>
    <trip id="28" depart="28.00" from="397317311#0" to="397316171"/>
    <trip id="29" depart="29.00" from="-397327937#1" to="468433798#0"/>
</routes>
