<?xml version="1.0" encoding="UTF-8"?>
<!-- generated on 2022-10-26 03:15:47.624875 by $Id$ UNKNOWN
  options: -n /Users/nafiulhassan/veins-5.1/examples/veins/input/washingtondc/30/washingtondc.net.xml -s 18 -e 200 -o /Users/nafiulhassan/veins-5.1/examples/veins/input/washingtondc/seed-18/200/washingtondc.trips.xml
-->
<routes xmlns:xsi="http://www.w3.org/2001/XMLSchema-instance" xsi:noNamespaceSchemaLocation="http://sumo.dlr.de/xsd/routes_file.xsd">
    <trip id="0" depart="0.00" from="-468469900#0" to="468433806#0"/>
    <trip id="1" depart="1.00" from="120478696#0" to="-47916249#2"/>
    <trip id="2" depart="2.00" from="298825115#0" to="298815729#0"/>
    <trip id="3" depart="3.00" from="297382770#3" to="296355738#0"/>
    <trip id="4" depart="4.00" from="-6057581#2" to="-6053702#1"/>
    <trip id="5" depart="5.00" from="469159259" to="1051018092#0"/>
    <trip id="6" depart="6.00" from="468469915#1" to="508158272#0"/>
    <trip id="7" depart="7.00" from="589539519#2" to="650605162"/>
    <trip id="8" depart="8.00" from="-537114618#5" to="-575569267#12"/>
    <trip id="9" depart="9.00" from="50260020#4" to="397321704#0"/>
    <trip id="10" depart="10.00" from="-50260020#5" to="468469900#1"/>
    <trip id="11" depart="11.00" from="589539537#0" to="543712269#0"/>
    <trip id="12" depart="12.00" from="-509645504#3" to="-983121553#2"/>
    <trip id="13" depart="13.00" from="-125568108#2" to="923370378#7"/>
    <trip id="14" depart="14.00" from="-520463951#1" to="494988146#0"/>
    <trip id="15" depart="15.00" from="354079209#0" to="397363850#1"/>
    <trip id="16" depart="16.00" from="347003328#0" to="535520845#1"/>
    <trip id="17" depart="17.00" from="421258870#0" to="-985426724"/>
    <trip id="18" depart="18.00" from="-397316195#1" to="297368625#0"/>
    <trip id="19" depart="19.00" from="6057813#0" to="-434444693#2"/>
    <trip id="20" depart="20.00" from="469154542" to="438964977"/>
    <trip id="21" depart="21.00" from="-466359338#1" to="-50511365#2"/>
    <trip id="22" depart="22.00" from="469157092" to="202992520#2"/>
    <trip id="23" depart="23.00" from="130908291#0" to="297380211#4"/>
    <trip id="24" depart="24.00" from="-352412083" to="470165122"/>
    <trip id="25" depart="25.00" from="397364246#2" to="347003329#0"/>
    <trip id="26" depart="26.00" from="125568108#3" to="520537739"/>
    <trip id="27" depart="27.00" from="535718852#0" to="354202762"/>
    <trip id="28" depart="28.00" from="-333922526#1" to="-435424522#5"/>
    <trip id="29" depart="29.00" from="-436136927#8" to="-298832254#2"/>
    <trip id="30" depart="30.00" from="468433792#0" to="354079209#0"/>
    <trip id="31" depart="31.00" from="-50427058" to="6056363#2"/>
    <trip id="32" depart="32.00" from="442066186#0" to="509326253#0"/>
    <trip id="33" depart="33.00" from="535462247#0" to="468469927#0"/>
    <trip id="34" depart="34.00" from="347003328#0" to="983121554#0"/>
    <trip id="35" depart="35.00" from="-397329575#1" to="469154542"/>
    <trip id="36" depart="36.00" from="590598870#0" to="297380210#0"/>
    <trip id="37" depart="37.00" from="521221938" to="-468469897#1"/>
    <trip id="38" depart="38.00" from="131052508#4" to="-6057813#1"/>
    <trip id="39" depart="39.00" from="130908283#0" to="469165490#0"/>
    <trip id="40" depart="40.00" from="-423602679" to="120478695#5"/>
    <trip id="41" depart="41.00" from="583705855" to="-983121554#5"/>
    <trip id="42" depart="42.00" from="-397327932#1" to="988487222"/>
    <trip id="43" depart="43.00" from="354436361#1" to="-130788192#2"/>
    <trip id="44" depart="44.00" from="397321711#1" to="-435424521#1"/>
    <trip id="45" depart="45.00" from="-468433792#1" to="50260020#4"/>
    <trip id="46" depart="46.00" from="468433797#3" to="131076097#1"/>
    <trip id="47" depart="47.00" from="333922462#0" to="397316524#0"/>
    <trip id="48" depart="48.00" from="296365924#2" to="-352412100"/>
    <trip id="49" depart="49.00" from="50524890#2" to="50524889#3"/>
    <trip id="50" depart="50.00" from="131448559#0" to="130908283#3"/>
    <trip id="51" depart="51.00" from="435424521#0" to="297295058#0"/>
    <trip id="52" depart="52.00" from="131052508#3" to="589551072#0"/>
    <trip id="53" depart="53.00" from="6055551#0" to="-436136927#6"/>
    <trip id="54" depart="54.00" from="-468434115#1" to="508158268"/>
    <trip id="55" depart="55.00" from="70948801#3" to="49999716#0"/>
    <trip id="56" depart="56.00" from="-983121554#6" to="-296365351#4"/>
    <trip id="57" depart="57.00" from="537114618#3" to="6060903#0"/>
    <trip id="58" depart="58.00" from="50511365#0" to="50009632"/>
    <trip id="59" depart="59.00" from="923370378#5" to="333922766#2"/>
    <trip id="60" depart="60.00" from="6060903#2" to="-6056532#2"/>
    <trip id="61" depart="61.00" from="-298815729#1" to="575569267#11"/>
    <trip id="62" depart="62.00" from="469165494" to="509645504#2"/>
    <trip id="63" depart="63.00" from="-397327938" to="-983121554#1"/>
    <trip id="64" depart="64.00" from="397360057#0" to="-297294792#2"/>
    <trip id="65" depart="65.00" from="120478418#0" to="421076400#0"/>
    <trip id="66" depart="66.00" from="6062881#0" to="48018630"/>
    <trip id="67" depart="67.00" from="130908282" to="130908289#7"/>
    <trip id="68" depart="68.00" from="323742931" to="50428539#0"/>
    <trip id="69" depart="69.00" from="988487225#0" to="-126303361#7"/>
    <trip id="70" depart="70.00" from="6058797" to="514191883#0"/>
    <trip id="71" depart="71.00" from="-203025089#2" to="-6054255#2"/>
    <trip id="72" depart="72.00" from="-6060903#2" to="-509645504#3"/>
    <trip id="73" depart="73.00" from="-468433792#1" to="-397360056#2"/>
    <trip id="74" depart="74.00" from="468469919#0" to="202992520#5"/>
    <trip id="75" depart="75.00" from="-397303090#1" to="575569267#9"/>
    <trip id="76" depart="76.00" from="575569267#11" to="-6055383#2"/>
    <trip id="77" depart="77.00" from="542269314#0" to="50710195#2"/>
    <trip id="78" depart="78.00" from="352412039#0" to="-333922462#1"/>
    <trip id="79" depart="79.00" from="47916246#0" to="589539536#3"/>
    <trip id="80" depart="80.00" from="6051343" to="696737929#2"/>
    <trip id="81" depart="81.00" from="-468433792#1" to="923370378#8"/>
    <trip id="82" depart="82.00" from="-345633936#1" to="130772956#0"/>
    <trip id="83" depart="83.00" from="354202762" to="45838764#0"/>
    <trip id="84" depart="84.00" from="352411913#0" to="6055551#0"/>
    <trip id="85" depart="85.00" from="50797098#8" to="589533517#3"/>
    <trip id="86" depart="86.00" from="468469923#0" to="274292550#0"/>
    <trip id="87" depart="87.00" from="-130802359#1" to="466352083#0"/>
    <trip id="88" depart="88.00" from="6062397#0" to="-469165494"/>
    <trip id="89" depart="89.00" from="988487226" to="-130788192#2"/>
    <trip id="90" depart="90.00" from="130908283#0" to="50429919"/>
    <trip id="91" depart="91.00" from="47920785#0" to="397321711#2"/>
    <trip id="92" depart="92.00" from="-6063421#5" to="-589539522#2"/>
    <trip id="93" depart="93.00" from="-421061860" to="466349886#0"/>
    <trip id="94" depart="94.00" from="-130788227#1" to="-397327937#1"/>
    <trip id="95" depart="95.00" from="48018646#2" to="203119341#0"/>
    <trip id="96" depart="96.00" from="-130788192#2" to="131052515"/>
    <trip id="97" depart="97.00" from="6058793#0" to="321444902#3"/>
    <trip id="98" depart="98.00" from="-6058793#2" to="-397363850#0"/>
    <trip id="99" depart="99.00" from="29961183#4" to="-589533512#0"/>
    <trip id="100" depart="100.00" from="-6061387#2" to="-296365924#2"/>
    <trip id="101" depart="101.00" from="423615732#0" to="509326776#0"/>
    <trip id="102" depart="102.00" from="321477125#0" to="423615732#0"/>
    <trip id="103" depart="103.00" from="-961869114#1" to="987879162#0"/>
    <trip id="104" depart="104.00" from="-920893151#1" to="6057544#2"/>
    <trip id="105" depart="105.00" from="-130788155#2" to="468433805"/>
    <trip id="106" depart="106.00" from="589539536#0" to="397319281#0"/>
    <trip id="107" depart="107.00" from="-509645504#3" to="-468433799#0"/>
    <trip id="108" depart="108.00" from="985426724" to="988196201#0"/>
    <trip id="109" depart="109.00" from="-575569267#10" to="130908292#0"/>
    <trip id="110" depart="110.00" from="537114618#6" to="589539518#2"/>
    <trip id="111" depart="111.00" from="-130927087#2" to="354202762"/>
    <trip id="112" depart="112.00" from="-589551092#1" to="-305660797#2"/>
    <trip id="113" depart="113.00" from="469165475" to="297401518#0"/>
    <trip id="114" depart="114.00" from="-50511365#7" to="50511237#0"/>
    <trip id="115" depart="115.00" from="1052908406#0" to="-6057421#3"/>
    <trip id="116" depart="116.00" from="-985426724" to="-47916247#2"/>
    <trip id="117" depart="117.00" from="583698431#1" to="1052908775#0"/>
    <trip id="118" depart="118.00" from="6061544" to="469151751"/>
    <trip id="119" depart="119.00" from="354079210" to="6054252#0"/>
    <trip id="120" depart="120.00" from="130802362#0" to="-148762106#2"/>
    <trip id="121" depart="121.00" from="468433806#0" to="-297294789#2"/>
    <trip id="122" depart="122.00" from="6059056#3" to="923370378#10"/>
    <trip id="123" depart="123.00" from="130889758#3" to="-333922765#2"/>
    <trip id="124" depart="124.00" from="70948801#3" to="-6054255#8"/>
    <trip id="125" depart="125.00" from="888235719#3" to="297368625#0"/>
    <trip id="126" depart="126.00" from="590605528#2" to="589539536#3"/>
    <trip id="127" depart="127.00" from="-436136927#6" to="120478419#0"/>
    <trip id="128" depart="128.00" from="202992520#2" to="-494988146#1"/>
    <trip id="129" depart="129.00" from="6060903#0" to="-50799230#1"/>
    <trip id="130" depart="130.00" from="-575569267#10" to="-468469900#1"/>
    <trip id="131" depart="131.00" from="-436136927#5" to="520537743#1"/>
    <trip id="132" depart="132.00" from="-50260020#7" to="397329578#0"/>
    <trip id="133" depart="133.00" from="-397327124#1" to="520532363"/>
    <trip id="134" depart="134.00" from="509325916" to="637150476"/>
    <trip id="135" depart="135.00" from="-292148140#2" to="468441885#0"/>
    <trip id="136" depart="136.00" from="49999716#2" to="120478696#0"/>
    <trip id="137" depart="137.00" from="469159257#0" to="1049842802#0"/>
    <trip id="138" depart="138.00" from="397329580#0" to="583705856#2"/>
    <trip id="139" depart="139.00" from="537114618#0" to="1060936417"/>
    <trip id="140" depart="140.00" from="-6055383#2" to="696806633#2"/>
    <trip id="141" depart="141.00" from="-537114618#4" to="297295058#0"/>
    <trip id="142" depart="142.00" from="131052512#3" to="130788155#0"/>
    <trip id="143" depart="143.00" from="353283534#0" to="-397318410#1"/>
    <trip id="144" depart="144.00" from="297294791#0" to="468450576#0"/>
    <trip id="145" depart="145.00" from="583705856#2" to="297759292#0"/>
    <trip id="146" depart="146.00" from="-535718852#1" to="-6063421#2"/>
    <trip id="147" depart="147.00" from="-476103813#1" to="-435424522#1"/>
    <trip id="148" depart="148.00" from="1036008538" to="130889702#0"/>
    <trip id="149" depart="149.00" from="695842776#0" to="50429926"/>
    <trip id="150" depart="150.00" from="6057595#0" to="298814315#0"/>
    <trip id="151" depart="151.00" from="-47916246#3" to="397319283"/>
    <trip id="152" depart="152.00" from="469165490#2" to="988487222"/>
    <trip id="153" depart="153.00" from="-535546520#4" to="50511365#1"/>
    <trip id="154" depart="154.00" from="756406654#0" to="130889758#0"/>
    <trip id="155" depart="155.00" from="345633935#7" to="-397303092#2"/>
    <trip id="156" depart="156.00" from="468469897#0" to="-292148140#4"/>
    <trip id="157" depart="157.00" from="508158270#0" to="50429925"/>
    <trip id="158" depart="158.00" from="543712269#0" to="583695032"/>
    <trip id="159" depart="159.00" from="-297380211#3" to="589551072#0"/>
    <trip id="160" depart="160.00" from="476103812" to="696198846#1"/>
    <trip id="161" depart="161.00" from="6054895#2" to="297380211#4"/>
    <trip id="162" depart="162.00" from="589533518#2" to="-494988146#1"/>
    <trip id="163" depart="163.00" from="923370378#0" to="468469890#2"/>
    <trip id="164" depart="164.00" from="520537747" to="354202945#0"/>
    <trip id="165" depart="165.00" from="397327118#0" to="-589533512#0"/>
    <trip id="166" depart="166.00" from="520468342" to="345633934"/>
    <trip id="167" depart="167.00" from="-520468347#3" to="50429923"/>
    <trip id="168" depart="168.00" from="397329572#0" to="131520206#0"/>
    <trip id="169" depart="169.00" from="520532361#0" to="131052512#2"/>
    <trip id="170" depart="170.00" from="468469927#2" to="353283535#2"/>
    <trip id="171" depart="171.00" from="130788204#0" to="130285122#0"/>
    <trip id="172" depart="172.00" from="409541717" to="-468469900#4"/>
    <trip id="173" depart="173.00" from="-468434115#1" to="1048676964#0"/>
    <trip id="174" depart="174.00" from="47916249#0" to="-469165489#1"/>
    <trip id="175" depart="175.00" from="50524890#3" to="1052604510#0"/>
    <trip id="176" depart="176.00" from="695842776#0" to="-397315034#1"/>
    <trip id="177" depart="177.00" from="589533512#1" to="535462248"/>
    <trip id="178" depart="178.00" from="537114618#9" to="438960035#0"/>
    <trip id="179" depart="179.00" from="-983121554#6" to="698748857#0"/>
    <trip id="180" depart="180.00" from="-520468343#1" to="469165490#2"/>
    <trip id="181" depart="181.00" from="130908291#0" to="-297380211#8"/>
    <trip id="182" depart="182.00" from="131052508#2" to="1049226224#0"/>
    <trip id="183" depart="183.00" from="509326776#0" to="-50511365#1"/>
    <trip id="184" depart="184.00" from="537114618#3" to="-131052297#9"/>
    <trip id="185" depart="185.00" from="-321444899#2" to="436136927#7"/>
    <trip id="186" depart="186.00" from="6060903#0" to="435106240#2"/>
    <trip id="187" depart="187.00" from="-468433791#1" to="6056366#0"/>
    <trip id="188" depart="188.00" from="468469900#1" to="-121980352"/>
    <trip id="189" depart="189.00" from="-397329572#1" to="130889755#0"/>
    <trip id="190" depart="190.00" from="352412039#0" to="397318414#0"/>
    <trip id="191" depart="191.00" from="575569267#3" to="435106240#0"/>
    <trip id="192" depart="192.00" from="723610179" to="130908289#3"/>
    <trip id="193" depart="193.00" from="125568108#0" to="468433804"/>
    <trip id="194" depart="194.00" from="6055382#0" to="146537578#0"/>
    <trip id="195" depart="195.00" from="-203119342#1" to="130802371#0"/>
    <trip id="196" depart="196.00" from="-50431293#1" to="6054254#0"/>
    <trip id="197" depart="197.00" from="120478418#0" to="26707982#0"/>
    <trip id="198" depart="198.00" from="436136929#2" to="-296365351#1"/>
    <trip id="199" depart="199.00" from="-333922765#2" to="323742930#2"/>
</routes>
