<?xml version="1.0" encoding="UTF-8"?>
<!-- generated on 2022-10-26 03:08:31.380369 by $Id$ UNKNOWN
  options: -n /Users/nafiulhassan/veins-5.1/examples/veins/input/washingtondc/20/washingtondc.net.xml -s 18 -e 20 -o /Users/nafiulhassan/veins-5.1/examples/veins/input/washingtondc/seed-18/20/washingtondc.trips.xml
-->
<routes xmlns:xsi="http://www.w3.org/2001/XMLSchema-instance" xsi:noNamespaceSchemaLocation="http://sumo.dlr.de/xsd/routes_file.xsd">
    <trip id="0" depart="0.00" from="-468469900#0" to="468433806#0"/>
    <trip id="1" depart="1.00" from="120478696#0" to="-47916249#2"/>
    <trip id="2" depart="2.00" from="298825115#0" to="298815729#0"/>
    <trip id="3" depart="3.00" from="297382770#3" to="296355738#0"/>
    <trip id="4" depart="4.00" from="-6057581#2" to="-6053702#1"/>
    <trip id="5" depart="5.00" from="469159259" to="1051018092#0"/>
    <trip id="6" depart="6.00" from="468469915#1" to="508158272#0"/>
    <trip id="7" depart="7.00" from="589539519#2" to="650605162"/>
    <trip id="8" depart="8.00" from="-537114618#5" to="-575569267#12"/>
    <trip id="9" depart="9.00" from="50260020#4" to="397321704#0"/>
    <trip id="10" depart="10.00" from="-50260020#5" to="468469900#1"/>
    <trip id="11" depart="11.00" from="589539537#0" to="543712269#0"/>
    <trip id="12" depart="12.00" from="-509645504#3" to="-983121553#2"/>
    <trip id="13" depart="13.00" from="-125568108#2" to="923370378#7"/>
    <trip id="14" depart="14.00" from="-520463951#1" to="494988146#0"/>
    <trip id="15" depart="15.00" from="354079209#0" to="397363850#1"/>
    <trip id="16" depart="16.00" from="347003328#0" to="535520845#1"/>
    <trip id="17" depart="17.00" from="421258870#0" to="-985426724"/>
    <trip id="18" depart="18.00" from="-397316195#1" to="297368625#0"/>
    <trip id="19" depart="19.00" from="6057813#0" to="-434444693#2"/>
</routes>
