<?xml version="1.0" encoding="UTF-8"?>
<!-- generated on 2022-10-26 03:16:12.796240 by $Id$ UNKNOWN
  options: -n /Users/nafiulhassan/veins-5.1/examples/veins/input/washingtondc/30/washingtondc.net.xml -s 25 -e 40 -o /Users/nafiulhassan/veins-5.1/examples/veins/input/washingtondc/seed-25/40/washingtondc.trips.xml
-->
<routes xmlns:xsi="http://www.w3.org/2001/XMLSchema-instance" xsi:noNamespaceSchemaLocation="http://sumo.dlr.de/xsd/routes_file.xsd">
    <trip id="0" depart="0.00" from="130889684#0" to="6059056#0"/>
    <trip id="1" depart="1.00" from="583698432" to="-509466050#2"/>
    <trip id="2" depart="2.00" from="589539536#3" to="454817812"/>
    <trip id="3" depart="3.00" from="-202992522#3" to="696806634#0"/>
    <trip id="4" depart="4.00" from="-6054255#5" to="-998338690#9"/>
    <trip id="5" depart="5.00" from="146537575#0" to="397329575#0"/>
    <trip id="6" depart="6.00" from="-397321705#1" to="468469946#0"/>
    <trip id="7" depart="7.00" from="543712269#2" to="321477125#0"/>
    <trip id="8" depart="8.00" from="510723128#1" to="436136930#0"/>
    <trip id="9" depart="9.00" from="535780677#0" to="-468469894#1"/>
    <trip id="10" depart="10.00" from="130772943#2" to="297294789#0"/>
    <trip id="11" depart="11.00" from="-353283601" to="923370378#10"/>
    <trip id="12" depart="12.00" from="45838768#0" to="-352411913#1"/>
    <trip id="13" depart="13.00" from="397329575#0" to="131052297#0"/>
    <trip id="14" depart="14.00" from="-476103806" to="-466359338#1"/>
    <trip id="15" depart="15.00" from="297273914#0" to="-297380211#8"/>
    <trip id="16" depart="16.00" from="397319281#0" to="321477125#6"/>
    <trip id="17" depart="17.00" from="-397327933" to="589539536#4"/>
    <trip id="18" depart="18.00" from="-202992520#7" to="-468434115#1"/>
    <trip id="19" depart="19.00" from="521221938" to="-520463951#1"/>
    <trip id="20" depart="20.00" from="146537575#0" to="397317304"/>
    <trip id="21" depart="21.00" from="202992524#0" to="298815729#0"/>
    <trip id="22" depart="22.00" from="321444900" to="297380214#3"/>
    <trip id="23" depart="23.00" from="-296365351#2" to="520537748"/>
    <trip id="24" depart="24.00" from="-723610179" to="-203119342#1"/>
    <trip id="25" depart="25.00" from="130908292#2" to="520537745"/>
    <trip id="26" depart="26.00" from="439875858#8" to="292148140#0"/>
    <trip id="27" depart="27.00" from="297382769#0" to="-514191883#2"/>
    <trip id="28" depart="28.00" from="436136929#2-AddedOnRampEdge" to="126303365"/>
    <trip id="29" depart="29.00" from="-297294791#2" to="-397327939#1"/>
    <trip id="30" depart="30.00" from="-333922766#5" to="468469935#2"/>
    <trip id="31" depart="31.00" from="590581594#0" to="50429925"/>
    <trip id="32" depart="32.00" from="-514191882#1" to="-435424522#3"/>
    <trip id="33" depart="33.00" from="696806632#0" to="130788227#4"/>
    <trip id="34" depart="34.00" from="-468433799#0" to="397319284#0"/>
    <trip id="35" depart="35.00" from="436136930#0" to="353283534#0"/>
    <trip id="36" depart="36.00" from="292148140#0" to="-985426725#1"/>
    <trip id="37" depart="37.00" from="298832261#0" to="292148140#3"/>
    <trip id="38" depart="38.00" from="468469943#0" to="203119345#0"/>
    <trip id="39" depart="39.00" from="130285138#0" to="983121554#6"/>
</routes>
