<?xml version="1.0" encoding="UTF-8"?>

<!-- generated on 2022-10-26 03:15:26 by Eclipse SUMO duarouter Version 1.10.0
	<routes>

    <input>
        <net-file value="/Users/nafiulhassan/veins-5.1/examples/veins/input/washingtondc/30/washingtondc.net.xml"/>
        <route-files value="/Users/nafiulhassan/veins-5.1/examples/veins/input/washingtondc/seed-13/80/washingtondc.trips.xml"/>
    </input>

    <output>
        <output-file value="/Users/nafiulhassan/veins-5.1/examples/veins/input/washingtondc/seed-13/80/washingtondc.rou.xml"/>
        <alternatives-output value="/Users/nafiulhassan/veins-5.1/examples/veins/input/washingtondc/seed-13/80/washingtondc.rou.alt.xml"/>
    </output>

    <report>
        <ignore-errors value="true"/>
    </report>

</configuration>
-->

	<routes>
	<vehicle id="0" depart="0.00">
        <route edges="-6055551#1 6055551#0 923370378#0 923370378#1 923370378#3 923370378#5 923370378#7 923370378#8 923370378#10 468434115#0 537114618#0 537114618#2 537114618#3 537114618#5 537114618#6 537114618#9 469165490#0 469165490#2 590581668#0 590581668#2 1049842802#0 1049842803 1049842804 589539534#0 -469165492#2 -469165492#1 6060903#0 6060903#2 6060903#3 520532363 476103809#0 298832254#0 298832261#0 298832240 864614823#0 864614823#2 468469923#0 468469931#0 468469935#0 468469935#2 468469943#0 468469939#0"/>
    </vehicle>
	<vehicle id="1" depart="0.00">
        <route edges="469154542 6057417#0 6056366#0 6056366#3 130889756#0 130889756#3 130889756#5 130889756#7 130889757#0 698748857#0 589533584#0 695842776#0 695842776#1 520537746 583705854"/>
    </vehicle>
	<vehicle id="2" depart="0.00">
        <route edges="-469165488#1 -469165487 -469165486#1 126303366#0 126303365 352412093#0 -352411913#1 -354202945#1 476103809#0 298832254#0 298832261#0 126303356#0 476103811 476103813#0 298815729#0 352412039#0 -347003226 -535546520#4"/>
    </vehicle>
	<vehicle id="3" depart="0.00">
        <route edges="-435424522#1 -308739814#1 -130788195 -130788192#2 -434444693#2 -509646034#1 -352412073 -47920785#1 -352412039#1 -298815729#1 -476103813#1 -352412083 -126303356#1 -298832261#2 -298832254#2 -476103809#1 -520532363"/>
    </vehicle>
	<vehicle id="4" depart="0.00">
        <route edges="50260020#2 50260020#4 50260020#6 333922526#0 333922526#2 347003329#0 589539518#0 589539518#2 297380210#0 297380210#2 589539537#0 397327934#0 397327932#0 397327939#0 397327938 -397327938 -397327939#1"/>
    </vehicle>
	<vehicle id="5" depart="0.00">
        <route edges="352412073 -352412073 -47920785#1 -352412039#1 -298815729#1 -723610179 -468433795#1 -203119342#1 -397327121#1 -468433796 -397327124#1 -347003327#2 -397316204#2 -509466050#2"/>
    </vehicle>
	<vehicle id="6" depart="0.00">
        <route edges="-983121553#2 983121553#2 983121553#3 469165485#0 442066186#0 353283534#0 353283534#1 323742931 126303364 323742932 -126303366#1 469165486#0 469165487 469165488#0 590581668#0 590581668#2 1049842802#0 1049842803 1049842804 589539534#0 1049287312#0 1049287312#2 126303354#0 126303354#2 345709542#0 1048676964#0 298848145#0 130285121#0 508158271 508158272#0 130889749#0 130889749#2 397316524#0 -397316522 347003330#4 589533563#0 589539518#0 589539518#2 297380210#0 297380210#2 589539537#0 120478696#0 409551583 146537579#0"/>
    </vehicle>
	<vehicle id="7" depart="0.00">
        <route edges="575569267#3 -575569267#4 520463951#0 520463951#2 479469615#0 535546520#0 535546520#3 347003226 521200399 468433791#0 347003227 756406654#0 -468433792#1 -354079210 -468433793#1 -130927087#2 130889749#0 130889749#2 397316524#0 -397316522 -298814317#2 468433794 421734517#0"/>
    </vehicle>
	<vehicle id="8" depart="0.00">
        <route edges="-130788158#1 -469165494 469165494 130788158#0 130802362#0 130802362#1 1049226224#0 1049226223#0 1049226223#1 696737929#0 696737929#1 696737929#2 130802360#0 130802360#1 469159255 353283535#0 353283535#2 469159257#0 469159256#0 469159256#3 469159259 436136927#5 436136927#6 436136927#7 121980352 -520532363 -6060903#4 -6060903#2 -6060903#1"/>
    </vehicle>
	<vehicle id="9" depart="0.00">
        <route edges="-435424521#1 -420781368#1 397327118#0 131520206#0 509325421 50799689#0 -321444900 -648026207#1 -333922462#1 333922526#0 333922526#2 589539522#0 589539523#0"/>
    </vehicle>
	<vehicle id="10" depart="0.00">
        <route edges="520537744 520537746 583705854 535520845#0 535520845#1 535520845#2 352412093#0 -352411913#1 -354202945#1 476103809#0 298832254#0 298832261#0 298832240 864614824#0 520463956#0"/>
    </vehicle>
	<vehicle id="11" depart="0.00">
        <route edges="537114618#2 -537114618#2 6062881#0 985067151 130285133#0-AddedOnRampEdge 130285133#0 6056363#0 6056363#2 6056363#3 203119341#0 696806636#0 50428539#0 50428539#2 50428539#3 50428539#5 50428539#6"/>
    </vehicle>
	<vehicle id="12" depart="0.00">
        <route edges="696806631#0 50797097#0 698748857#0 589539536#0 589539536#2 589539536#3 589539536#4 590581668#0 590581668#2 1049842802#0 1049842803 1049842804 589539534#0 1049287312#0 1049287312#2 126303354#0 126303354#2 345709542#0 1048676964#0 298848145#0 1047793071 298814315#0 508158270#0 421268132#0 439875857#0 590598870#0 509326776#0"/>
    </vehicle>
	<vehicle id="13" depart="0.00">
        <route edges="-6054255#6 6054255#6 6054255#7 -297294784#2 494175930#0 297368443#0 146537579#0 130285135#0 397319284#0 397319281#0 421734517#0 298814317#0 -347003330#3 347003328#0 -397303092#2 -397303090#1 -175873836#2 130802372#0 130802372#3 589551073#0 1051018092#0 345633934 1051018093#0 589539535#0 589533502#0 468434122#0 468434122#2 695842776#0 695842776#1 520537745 466349883 583705855"/>
    </vehicle>
	<vehicle id="14" depart="0.00">
        <route edges="298814315#0 508158270#0 468433793#0 354079210 468433792#0 347003228#0 347003229#0 347003229#2 589551073#0 1051018092#0 345633934 1051018093#0 589539535#0 589533502#0 468434122#0 468434122#2 695842776#0 695842776#1 520537745 466349883 583705856#0 583705856#1 50429925"/>
    </vehicle>
	<vehicle id="15" depart="0.00">
        <route edges="397319283 421734517#0 298814317#0 397316523#0 -397316524#1 -130889749#2 -130889749#1 130927087#0 421268132#0 439875857#0 590598870#0 509326776#0 650605162 6062204 988196201#0 29961175#0 155011691#0 50710195#0 50710195#2 297296749#0 -466352083#1 -50511365#1 -50511365#0 131520273"/>
    </vehicle>
	<vehicle id="16" depart="0.00">
        <route edges="130788192#0 -130788192#2 -321444899#2 -321444898 -321444900 -648026207#1 -333922462#1 333922526#0 333922526#2 347003329#0 333922765#0 397317310#0 397319284#0 146537575#0"/>
    </vehicle>
	<vehicle id="17" depart="0.00">
        <route edges="1049253134 45839048#0 50511237#0 297296770#0 6056532#0 45838762#1 971624710 6062876#0 252140542#0 252140542#3 589539519#0 589539519#2 589539517#0 297444238#0 -397318410#1 -397318411#1"/>
    </vehicle>
	<vehicle id="18" depart="0.00">
        <route edges="535520845#0 535520845#1 535520845#2 352412093#0 -352411913#1 -354202945#1 476103809#0 298832254#0 298832261#0 126303356#0 476103811 476103813#0 298815729#0 352412039#0 47920785#0 352412073 509646034#0 516085385 509646035#0 509646035#2"/>
    </vehicle>
	<vehicle id="19" depart="0.00">
        <route edges="983121554#4 983121554#6 983121554#7 983121554#9 466359338#0 466359338#2 438964977 -352412093#2 -421061860 126303364 323742932 -126303366#1 468434122#0 468434122#2 695842775 469157093 469157092"/>
    </vehicle>
	<vehicle id="20" depart="0.00">
        <route edges="397317307#0 297444235#0 297444228#0 297759292#0 297759292#1 409546597 130285135#0 397319284#0 397319281#0 421734517#0 298814317#0 397316523#0 -397316524#1 -130889749#2 -130889749#1 130927087#0 468433793#0 354079210 468433792#0 -756406654#1 -347003227 -468433791#1 49999716#0 49999716#2 50429908"/>
    </vehicle>
	<vehicle id="21" depart="0.00">
        <route edges="-397329580#1 -6054886#1 -397329577#1 397321701#0 130802376#0 589551086#0 29961175#0 468469890#0 468469890#2 -296355738#2 -296355738#0 -468469887 -468469894#1 -468469897#1 -468469900#4 -468469900#1 -468469900#0 -468469904#1 468469904#0 468469900#0"/>
    </vehicle>
	<vehicle id="22" depart="0.00">
        <route edges="237743944#0 237743944#2 1049235346#0 130908291#0 466359340#0 466359340#1 535462248 421075190#0 421075190#1 421075190#2 421075190#3 543909823#0 985426725#0 985426724 468436769#0 6056069#0 589533583#0 589539536#0 589539536#2 589539536#3 589539536#4 590581668#0 590581668#2 1049842802#0 1049842803 1049842804 589539534#0 1049287312#0 1049287312#2 126303354#0 126303354#2 345709542#0 1048676964#0 298848145#0 130285121#0 508158271 508158272#0 130889749#0 130889749#2 397316524#0 -397316522 -298814317#2 468433794 397319278#0 298814316 454817812 146537575#0 397319276 297456132#0 397324964#0 397324962 146537578#0 297295058#0 146537585#0 -468444094#1"/>
    </vehicle>
	<vehicle id="23" depart="0.00">
        <route edges="-50260020#7 50260020#6 333922526#0 333922526#2 347003329#0 589539518#0 589539518#2 297380210#0 297380210#2 589539537#0 397327934#0 397327932#0 397327939#0 397327938 397327933 397327935#0 397327936#0 397327937#0 333922766#0"/>
    </vehicle>
	<vehicle id="24" depart="0.00">
        <route edges="-6053702#1 6053702#0 6053702#2 6053702#3 509326344#0 6054254#0 50431292#0 6057417#0 6056366#0 6056366#3 130889756#0 130889756#3 130889756#5 130889756#7 130889757#0 698748857#0 589539536#0 589539536#2 589539536#3 589539536#4 590581668#0 590581668#2 1049842802#0 1049842803 1049842804 589539534#0 1049287312#0 1049287312#2 126303354#0 126303354#2 345709542#0 1048676964#0 298848145#0 130285121#0 508158271 508158272#0 50260020#0 50260020#2 50260020#4 50260020#6 -297382770#5 -297382770#2 297382769#0 297382769#4 130802359#0 130802359#2 470165122 -468441884 -120478695#4 -120478695#3 -514191883#2 -514191882#1 -296365351#6 -296365351#5 -296365351#4 -296365351#2 296365351#2"/>
    </vehicle>
	<vehicle id="25" depart="0.00">
        <route edges="423608853 6055551#0 923370378#0 923370378#1 923370378#3 923370378#5 923370378#7 923370378#8 923370378#10 468434115#0 537114618#0 537114618#2 537114618#3 537114618#5 537114618#6 537114618#9 469154540#0 26707840#0 698748857#0 589533584#0 695842776#0 695842776#1 520537745 466349883 583705855 469165475 130889758#0 130889758#2"/>
    </vehicle>
	<vehicle id="26" depart="0.00">
        <route edges="-397327939#1 -397327932#1 -397327934#2 -397318412#1 -397318414#1 542269314#0 509649677 397317304 397317307#0 297444235#0 297444228#0 297759292#0"/>
    </vehicle>
	<vehicle id="27" depart="0.00">
        <route edges="-543909823#1 543909823#0 985426725#0 985426724 468436769#0 -130285136#2 -468436770 -698748856#1 -26707840#1 -469154540#1 -537114618#10 -537114618#8"/>
    </vehicle>
	<vehicle id="28" depart="0.00">
        <route edges="-47916247#2 47916247#2 47916247#3 421037439#0 47916248#0 397363850#1 130802361#0 6052882#0 435424522#0 435424522#2 435424522#4 48018661#0 130772931#1 575569268 130772928#0 121863780#0 121863780#1 988487224#0 48018630 988487225#0 130889704#0 130889704#1 837279711#0 837279711#2 837279711#4 1051205229#0 1051205229#1 130889702#0 130889702#3 130889702#4 1052908775#0 130889705#0 130889705#2 697824964#0 454815093#0 696806633#0 696806633#2 935806772#0 935806772#2 1054633206#0 237743944#0 237743944#2 1049235346#0 130889700#0 -130788167#2 130788167#1"/>
    </vehicle>
	<vehicle id="29" depart="0.00">
        <route edges="-297382769#6 -297382769#3 297382770#0 297382770#3 -50260020#7 -50260020#5 -50260020#3 -50260020#1 130927087#0 468433793#0 354079210 468433792#0 347003228#0 347003229#0 347003229#2 589551073#0 1051018092#0 345633934 1051018093#0 589539535#0 589533502#0 126303366#0 126303365 6058797 520537749-AddedOnRampEdge 520537749 466359342#0"/>
    </vehicle>
	<vehicle id="30" depart="0.00">
        <route edges="696806637#0 435106239#0 469154542 397360057#0 469154543 397360055#0 50431293#0 469154544 6063274#0 1049303874#0 130889755#0"/>
    </vehicle>
	<vehicle id="31" depart="0.00">
        <route edges="48018653 48018648#0 468469915#0 48018646#0 48018646#2 1052604510#0 -435424522#5 -435424522#3 -435424522#1 -308739814#1 -435424521#1 -420781368#1 -920893151#1 -6057581#6 -6057581#5 -6057581#4 -6057581#3 -6057581#2 -6057581#1 45838762#1 971624710 29961183#0 29961183#2 29961183#4 297382769#0 6061387#3"/>
    </vehicle>
	<vehicle id="32" depart="0.00">
        <route edges="-202992524#2 202992524#0 202992524#3 29961183#4 297382770#0 297382770#3 -50260020#7 -50260020#5 -50260020#3 -50260020#1 50260019#0 508158268 987879162#0 -397316204#2 421290235#0 -421290235#2"/>
    </vehicle>
	<vehicle id="33" depart="0.00">
        <route edges="520532361#0 520532355#0 -6060903#4 -6060903#2 -6060903#1 589539535#0 589533502#0 468434122#0 468434122#2 695842775 469157093 469157092 468434120#0 543909823#0"/>
    </vehicle>
	<vehicle id="34" depart="0.00">
        <route edges="466349886#0 321477125#3 321477125#4 321477125#5 321477125#6 520537743#0 520537743#1 354436361#0 354436361#1 354436361#2 583698434 583698432 520537744 520537746 583705854 535520845#0 535520845#1 535520845#2 352412093#0 -352411913#1 -354202945#1 476103809#0 298832254#0 298832261#0 126303356#0 476103811 476103813#0 298815729#0 352412039#0 47920785#0 352412073 509646034#0 434444693#0 130788192#0 435424520#0 -420781368#1 -920893151#1 -6057581#6 -6057581#5 -6057581#4 -6057581#3 -6057581#2 -6057581#1 -6056532#2 50710195#0 50710195#2 297296749#0 -466352083#1"/>
    </vehicle>
	<vehicle id="35" depart="0.00">
        <route edges="131052386#6 -296365924#2 296365924#2 6055387#0 6055387#2 297294792#0 589905511#0 120478695#0 120478695#3 120478695#4 120478695#5 -382850737#1 -130802359#2 -130802359#1 -297382769#6 -297382769#3 297382770#0 589539519#0 589539519#2"/>
    </vehicle>
	<vehicle id="36" depart="0.00">
        <route edges="590605528#3 696737929#0 696737929#1 696737929#2 130802360#0 130802360#1 469159255 353283535#0 353283535#2 469159257#0 469159256#0 469159256#3 469159259 469159258#0 469159258#1 469159258#2 468469919#0 468469927#0 468469927#2 460536376#0 468469923#0 468469931#0 468469935#0 468469935#2 468469943#0 535546520#0 535546520#3 347003226 47920785#0 352412073 509646034#0 516085385 516085384#0"/>
    </vehicle>
	<vehicle id="37" depart="0.00">
        <route edges="-50422161 998338690#6 47916249#0 45838762#1 971624710 6062876#0 509325421 468450542 130285122#0 126303355#0 347003228#0 347003229#0 347003229#2 589551073#0 1051018092#0 345633934 1051018093#0 589539535#0 589533502#0 469165486#0 469165487 469165488#0 -469165489#1 -469165490#1 -537114618#10 -537114618#8 -537114618#5 -537114618#4 -537114618#2 6062881#0 985067151 130285133#0-AddedOnRampEdge 130285133#0 6056363#0 6056363#2 6056363#3 203119341#0 696806636#0 50428539#0 50428539#2 50428539#3 50428539#5 589533504#0"/>
    </vehicle>
	<vehicle id="38" depart="0.00">
        <route edges="130802372#0 130802372#3 131448559#0 397364246#2 126303356#0 476103811 476103813#0 298815729#0 352412039#0 47920785#0 352412073 509646034#0 434444693#0 130788192#0 435424520#0 -420781368#1 -854143897#2 -397363850#2 -397363850#0 47916248#0"/>
    </vehicle>
	<vehicle id="39" depart="0.00">
        <route edges="-397360056#2 -50431293#1 509326252#0 50431292#0 6057417#0 130908289#0 130908289#3 130908289#5 130908289#6 130908289#7 130908289#9 130908289#11 921887474#0"/>
    </vehicle>
	<vehicle id="40" depart="0.00">
        <route edges="423602319#0 -423602319#1 -423602679 6053702#0 6053702#2 6053702#3 509326344#0 6054254#0 50431292#0 6057417#0 6056366#0 6056366#3 130889756#0 130889756#3 130889756#5 130889756#7 130889757#0 698748857#0 589539536#0 589539536#2 589539536#3 589539536#4 590581668#0 590581668#2 1049842802#0 1049842803 1049842804 589539534#0 -469165492#2 -469165492#1 6060903#0 6060903#2 6060903#3 520532363 476103809#0 298832254#0 298832261#0 298832240 864614823#0 864614823#2 298832235#0 298832235#3 298832235#4 48018653 48018648#0"/>
    </vehicle>
	<vehicle id="41" depart="0.00">
        <route edges="-50799230#6 -50799230#5 -50799230#2 -50799230#1 6057204#0 985426725#0 985426724 468436769#0 6056069#0 589533583#0 589539536#0 589539536#2 589539536#3 589539536#4 590581668#0 590581668#2 1049842802#0 1049842803 1049842804 589539534#0 1049287312#0 1049287312#2 126303354#0 126303354#2 345709542#0 1048676964#0 298848145#0 1047793071 298814315#0 508158270#0 421268132#0 439875857#0 590598870#0 321444898 321444899#0 130788192#0 130788195 308739814#0 435424522#0"/>
    </vehicle>
	<vehicle id="43" depart="0.00">
        <route edges="130772954 696198846#1 48018648#0 468469915#0 468469915#1 130772931#1 575569267#0 575569267#3 575569267#5 575569267#7 575569267#9 575569267#11 575569267#13 575569267#15 297400412#0 297401518#0 -494988146#2 494988146#2"/>
    </vehicle>
	<vehicle id="44" depart="0.00">
        <route edges="126303354#2 130802372#0 130802372#3 589551073#0 1051018092#0 345633934 1051018093#0 589539535#0 589533502#0 469165486#0 469165487 469165488#0 -469165489#1 -469165490#1 -537114618#10 -537114618#8 -537114618#5 -537114618#4 -537114618#2 -537114618#1 -468434115#1 -923370378#11 -923370378#9"/>
    </vehicle>
	<vehicle id="45" depart="0.00">
        <route edges="-468433796 468433796 397327121#0 203119342#0 468433795#0 723610179 421077027 126303361#0 126303361#3 468469935#0"/>
    </vehicle>
	<vehicle id="46" depart="0.00">
        <route edges="-397316176#1 47471725#0 -130802371#2 -397303092#2 -397303090#1 -175873836#2 130802372#0 130802372#3 589551073#0 1051018092#0 345633934 1051018093#0 6060903#0 6060903#2 6060903#3 520532363 -520532363"/>
    </vehicle>
	<vehicle id="47" depart="0.00">
        <route edges="-297380211#3 130908059#0 120478695#0 120478695#3 120478695#4 120478695#5 468441885#0 468441885#2 202992519#0 -6057595#2 -988196201#2 -6062204 6062876#0 509325421 468450542 130285122#0 126303355#0 347003228#0 347003229#0 347003229#2 589551073#0 1051018092#0 345633934 1051018093#0 589539535#0 589533502#0 468434122#0 468434122#2 695842776#0 695842776#1 520537745 466349883"/>
    </vehicle>
	<vehicle id="48" depart="0.00">
        <route edges="397318410#0 -397318410#1 -397318411#1 -333922765#2 -589533563#2 -347003330#6 -347003330#3 347003328#0 -397303092#2 -397303090#1 -175873836#2 130802372#0 130802372#3 589551073#0 1051018092#0 345633934 1051018093#0 589539535#0 589533502#0 468434122#0 468434122#2 695842776#0 695842776#1 520537745 353283601"/>
    </vehicle>
	<vehicle id="49" depart="0.00">
        <route edges="-202992520#4 202992520#3 202992520#5 202992520#7 202992520#8"/>
    </vehicle>
	<vehicle id="50" depart="0.00">
        <route edges="126303361#0 -126303361#1 -421077027 -723610179 -468433795#1 -203119342#1 347003229#0 347003229#2 589551073#0 1051018092#0 345633934 1051018093#0 589539535#0 589533502#0 468434122#0 468434122#2 695842775 469157093 469157092 468434120#0 345633936#0 -345633936#1"/>
    </vehicle>
	<vehicle id="52" depart="0.00">
        <route edges="-397318416#2 -333922765#2 -589533563#2 -347003330#6 -347003330#3 347003328#0 -397303092#2 -397303090#1 -175873836#2 130802372#0 130802372#3 589551073#0 1051018092#0 345633934 1051018093#0 589539535#0 -130908283#4 -130908283#2 -130908283#1 -130908283#0 -438964977 -466359338#3 -466359338#1 -983121554#11 -983121554#7 -983121554#6 -983121554#5"/>
    </vehicle>
	<vehicle id="53" depart="0.00">
        <route edges="-6058793#2 6058793#0 1049842802#0 1049842803 1049842804 589539534#0 1049287312#0 1049287312#2 126303354#0 126303354#2 345709542#0 1048676964#0 298848145#0 130285121#0 508158271 508158272#0 130889749#0 130889749#2 397316524#0 -397316522 347003330#4 589533563#0 589539518#0 589539518#2 297380210#0 297380210#2 589539537#0 120478696#0 409551583"/>
    </vehicle>
	<vehicle id="54" depart="0.00">
        <route edges="-298832235#3 -298832235#2 468469923#0 468469931#0 -126303361#4 -126303361#1 -421077027 -723610179 -468433795#1 -203119342#1 -397327121#1 -468433796 -397327124#1 298848145#0 130285121#0 508158271 508158272#0 130889749#0 130889749#2 397316524#0 -397316522 -298814317#2 468433794 397319278#0 298814316 454817812 146537575#0 397319276 297456132#0 397324964#0 397324962 146537578#0 -297294789#2 297294789#0"/>
    </vehicle>
	<vehicle id="55" depart="0.00">
        <route edges="130788207#2 575569267#7 575569267#9 -125568108#4 -125568108#2 -125568108#1 -130788190 -130788195 -130788192#2 -321444899#2 -321444898 -321444900 -648026207#1 -333922462#1 333922526#0 333922526#2 347003329#0 589539518#0 589539518#2 297444238#0 542269314#0"/>
    </vehicle>
	<vehicle id="57" depart="0.00">
        <route edges="29961168#0 -29961168#2 297368443#0 146537579#0 130285135#0 397319284#0 397319281#0 436271294#0 409541717 50799606#0 397319279#0 397319282#0 397319286#0 -305368640#1 -998360408#3 -998360408#0 -397304550 -120478418#2 6055551#0 923370378#0 923370378#1 6054252#0 6054252#2 130889684#0 6058077#0 583695032 397321711#1 397321711#2 509640269 920636360#0"/>
    </vehicle>
	<vehicle id="58" depart="0.00">
        <route edges="333922766#0 -333922766#1 -397327937#1 -397327936#1 589905511#0 120478695#0 120478695#3 120478695#4 120478695#5 468441885#0 468441885#2 202992519#0 589551087#0 47916246#0 47916246#2 297296762#0 297296762#3"/>
    </vehicle>
	<vehicle id="59" depart="0.00">
        <route edges="468469890#2 -468469890#3 -468469890#1 155011691#0 6056532#0 45838762#1 971624710 6062876#0 509325421 468450542 130285122#0 126303355#0 347003228#0 347003229#0 347003229#2 589551073#0 1051018092#0 345633934 1051018093#0 589539535#0 589533502#0 468434122#0 468434122#2 695842775 469157093 583698433#0 696806631#0 -496467787#1 -961869114#1"/>
    </vehicle>
	<vehicle id="60" depart="0.00">
        <route edges="-131052297#9 131052297#6 409551583 146537579#0 130285135#0 397319284#0 397319281#0 421734517#0 29961164#0"/>
    </vehicle>
	<vehicle id="61" depart="0.00">
        <route edges="6056366#3 130889756#0 130889756#3 130889756#5 130889756#7 130889757#0 698748857#0 589539536#0 589539536#2 589539536#3 589539536#4 590581668#0 590581668#2 1049842802#0 1049842803 1049842804 589539534#0 1049287312#0 1049287312#2 126303354#0 126303354#2 345709542#0 1048676964#0 298848145#0 130285121#0 508158271 508158272#0 50260020#0 50260020#2"/>
    </vehicle>
	<vehicle id="62" depart="0.00">
        <route edges="-6055383#2 130889755#0 130889756#0 130889756#3 130889756#5 130889756#7 130889757#0 698748857#0 589539536#0 589539536#2 589539536#3 589539536#4 590581668#0 590581668#2 1049842802#0 1049842803 1049842804 589539534#0 -469165492#2 -469165492#1 6060903#0 6060903#2 6060903#3 520532363 476103809#0 298832254#0 298832261#0 298832240 864614823#0 864614823#2 468469923#0 468469931#0 468469935#0"/>
    </vehicle>
	<vehicle id="63" depart="0.00">
        <route edges="589533502#0 469165486#0 469165487 469165488#0 590581668#0 590581668#2 1049842802#0 1049842803 1049842804 589539534#0 1049287312#0 1049287312#2 126303354#0 126303354#2 345709542#0 1048676964#0 298848145#0 130285121#0 508158271 508158272#0 130889749#0 130889749#2 397316524#0 -397316522 -298814317#2 468433794 397319278#0 298814316 454817812 146537575#0 397319276 297456132#0 397324964#0 397324962 146537578#0 297294784#0 -6054255#8"/>
    </vehicle>
	<vehicle id="64" depart="0.00">
        <route edges="397363850#1 854143897#0 397327118#0 131520206#0 509325421 468450542 130285122#0 126303355#0 347003228#0 347003229#0 347003229#2 589551073#0 1051018092#0 345633934 1051018093#0 589539535#0 589533502#0 469165486#0 469165487 469165488#0 -469165489#1 -469165490#1 -537114618#10 -537114618#8 -537114618#5 -537114618#4 -537114618#2 6062881#0 985067151 130285133#0-AddedOnRampEdge"/>
    </vehicle>
	<vehicle id="65" depart="0.00">
        <route edges="-589539518#3 -589539518#1 -589533563#2 -347003330#6 397316523#0 -397316524#1 -130889749#2 -130889749#1 130927087#0 468433793#0 354079210 468433792#0 -756406654#1"/>
    </vehicle>
	<vehicle id="66" depart="0.00">
        <route edges="-50427058 -423602319#1 -423602679 6053702#0 6053702#2 6053702#3 509326344#0 6054254#0 50431292#0 6057417#0 6056366#0 6056366#3 130889756#0 130889756#3 130889756#5 130889756#7 130889757#0 698748857#0 589539536#0 589539536#2 589539536#3 589539536#4 -469165488#1 -469165487 -469165486#1 126303366#0 126303365"/>
    </vehicle>
	<vehicle id="67" depart="0.00">
        <route edges="-202992520#2 -6057595#2 -988196201#2 -6062204 6062876#0 509325421 468450542 130285122#0 126303355#0 347003228#0 347003229#0 347003229#2 589551073#0 1051018092#0 345633934 1051018093#0 589539535#0 589533502#0 468434122#0 468434122#2 695842776#0 695842776#1 520537745 466349883 583705855 469165475 130889758#0 130889758#2 130889758#3 130889758#4 130889758#6"/>
    </vehicle>
	<vehicle id="68" depart="0.00">
        <route edges="-321444899#2 130285122#0 126303355#0 347003228#0 347003229#0 347003229#2 589551073#0 1051018092#0 345633934 1051018093#0 589539535#0 589533502#0 468434122#0 468434122#2 695842775 469157093 469157092 1048252755#0 589533511 354436361#0 354436361#1 50429929"/>
    </vehicle>
	<vehicle id="69" depart="0.00">
        <route edges="421258870#0 397303090#0 397303092#0 -347003328#2 347003330#0 347003330#4 589533563#0 589539518#0 589539518#2 297380210#0 297380210#2 -297380214#6 -297380214#2 -397329572#1 -397329570 -397329575#1 120478695#0 -120478695#2"/>
    </vehicle>
	<vehicle id="70" depart="0.00">
        <route edges="50797098#6 50797098#8 130889756#7 130889757#0 698748856#0 468436770 130285136#0 -468436769#1 -985426724 -985426725#1 -543909823#1 345633936#0 466349886#0 466349886#2 466349886#3 -130788158#1 -469165494"/>
    </vehicle>
	<vehicle id="71" depart="0.00">
        <route edges="297401518#0 -494988146#2 494988146#2 -50422161 998338690#6 47916249#0 45838762#1 971624710 6062876#0 509325421 50799689#0 321444902#0 321444902#3 354079209#0 987879163#0 508158268 987879162#0 -397316204#2 -397316195#1 -397316186#1 -397316180#1 -397316171 -397316176#1 397316176#0 397316171 397316180#0"/>
    </vehicle>
	<vehicle id="72" depart="0.00">
        <route edges="120478695#4 120478695#5 468441885#0 468441885#2 202992519#0 -6057595#2 -988196201#2 -6062204 6062876#0 509325421 468450542 130285122#0 126303355#0 347003228#0 347003229#0 347003229#2 131448559#0 397364246#2 298832240 864614823#0 864614823#2 -864614823#3"/>
    </vehicle>
	<vehicle id="73" depart="0.00">
        <route edges="202992522#2 589551086#0 29961175#0 155011691#0 6056532#0 6057581#0 6057581#2 6057581#3 6057581#4 6057581#5 6057581#6 920893151#0 -854143897#2 -397363850#2 -397363850#0"/>
    </vehicle>
	<vehicle id="74" depart="0.00">
        <route edges="589539518#0 -589539518#1 -589533563#2 -347003330#6 -347003330#3 397316186#0 397316195#0 -397316195#1 -397316186#1 -397316180#1"/>
    </vehicle>
	<vehicle id="75" depart="0.00">
        <route edges="535546521#0 924793627#0-AddedOnRampEdge 924793627#0 -421077027 -723610179 -468433795#1 -203119342#1 -397327121#1 -468433796 -397327124#1 298848145#0 130285121#0 508158271 508158272#0 130889749#0 130889749#2 397316524#0 -397316522 347003330#4 589533563#0 589539518#0 589539518#2 297380210#0 297380210#2 589539537#0 397327934#0 397327932#0 397327939#0 397327938 397327933 397327935#0 -297294792#2 -297294791#2 -513235538#2"/>
    </vehicle>
	<vehicle id="76" depart="0.00">
        <route edges="1026906900 130802362#0 130802362#1 466359340#0 466359340#1 535462248 421075190#0 421075190#1 421075190#2 421075190#3 543909823#0 985426725#0 985426724 468436769#0 6056069#0 589533583#0 589539536#0 589539536#2 589539536#3 589539536#4 590581668#0 590581668#2 1049842802#0 1049842803 1049842804 589539534#0 1049287312#0 1049287312#2 126303354#0 126303354#2 345709542#0 1048676964#0 298848145#0 130285121#0 508158271 508158272#0 130889749#0"/>
    </vehicle>
	<vehicle id="77" depart="0.00">
        <route edges="-131052512#3 -131052512#2 -131052512#1 -397327937#1 -397327936#1"/>
    </vehicle>
	<vehicle id="78" depart="0.00">
        <route edges="130788155#0 -6062201#2 971624710 29961183#0 29961183#2 -202992524#4 202992524#3"/>
    </vehicle>
	<vehicle id="79" depart="0.00">
        <route edges="589551092#0 -589551092#0 146537587#0 397324962 297368443#0 146537579#0 130285135#0 397319284#0 397319281#0 421734517#0 298814317#0 -347003330#3 347003328#0 -397303092#2 -397303090#1 -175873836#2 130802372#0 130802372#3 589551073#0 1051018092#0 345633934 1051018093#0 589539535#0 589533502#0 468434122#0 468434122#2 695842775 469157093 469157092 468434120#0 543909823#0 985426725#0"/>
    </vehicle>
</routes>
