<?xml version="1.0" encoding="UTF-8"?>

<!-- generated on 2022-10-26 03:08:32 by Eclipse SUMO duarouter Version 1.10.0
	<routes>

    <input>
        <net-file value="/Users/nafiulhassan/veins-5.1/examples/veins/input/washingtondc/20/washingtondc.net.xml"/>
        <route-files value="/Users/nafiulhassan/veins-5.1/examples/veins/input/washingtondc/seed-20/20/washingtondc.trips.xml"/>
    </input>

    <output>
        <output-file value="/Users/nafiulhassan/veins-5.1/examples/veins/input/washingtondc/seed-20/20/washingtondc.rou.xml"/>
        <alternatives-output value="/Users/nafiulhassan/veins-5.1/examples/veins/input/washingtondc/seed-20/20/washingtondc.rou.alt.xml"/>
    </output>

    <report>
        <ignore-errors value="true"/>
    </report>

</configuration>
-->

	<routes>
	<vehicle id="0" depart="0.00">
        <route edges="6055727#0 126303354#0 126303354#2 130802372#0 130802372#3 131448559#0 397364246#2 298832240 864614823#0 864614823#2 468469923#0 468469931#0 468469935#0 468469935#2 468469943#0 468469939#0 468469946#0"/>
    </vehicle>
	<vehicle id="1" depart="0.00">
        <route edges="50524889#3 50524889#7 50524889#10 -50799230#8 -50799230#6 -50799230#5 -50799230#2 -50799230#1 6057204#0 985426725#0 985426724 468436769#0 6056069#0 589533583#0 589539536#0 589539536#2 589539536#3 589539536#4 590581668#0 590581668#2 1049842802#0 1049842803 1049842804 589539534#0 1049287312#0 1049287312#2 126303354#0 126303354#2 345709542#0 1048676964#0 298848145#0 130285121#0 508158271 508158272#0 130889749#0 130889749#2 397316524#0 -397316522 347003330#4 589533563#0 589539518#0 589539518#2 297380210#0 297380210#2 589539537#0 397327934#0 397327932#0 397327939#0 397327938 397327933 397327935#0 397327936#0 397327937#0 -6059107#6 -6059107#3 131052386#6 -296365924#2 296365924#2 6055387#0"/>
    </vehicle>
	<vehicle id="2" depart="0.00">
        <route edges="-6056371#1 -397318415#1 589533564#0 -347003330#6 -347003330#3 347003328#0 -397303092#2 -397303090#1 -175873836#2 130802372#0 130802372#3 589551073#0 1051018092#0 345633934 1051018093#0 589539535#0 589533502#0 126303366#0 126303365 6058797 520537749-AddedOnRampEdge 520537749 466359342#0 466359342#3 454815093#0"/>
    </vehicle>
	<vehicle id="3" depart="0.00">
        <route edges="6055551#0 923370378#0 923370378#1 923370378#3 923370378#5 923370378#7 923370378#8 923370378#10 468434115#0 537114618#0 537114618#2 537114618#3 537114618#5 537114618#6 537114618#9 469165490#0 469165490#2 590581668#0 590581668#2 1049842802#0 1049842803 1049842804 589539534#0 -469165492#2 -469165492#1 589539535#0"/>
    </vehicle>
	<vehicle id="4" depart="0.00">
        <route edges="397324964#0 397324962 297368443#0 146537579#0 130285135#0 397319284#0 397319281#0 421734517#0 298814317#0 -347003330#3 347003328#0 -397303092#2 -397303090#1 -175873836#2 130802372#0 130802372#3 131448559#0 397364246#2 298832240 864614824#0 203119345#0 -468433803"/>
    </vehicle>
	<vehicle id="5" depart="0.00">
        <route edges="131052297#6 409551583 146537579#0 130285135#0 -333922782#1 -333922765#2 -347003329#2 -333922526#3 -333922526#1 333922462#0 648026207#0 321444900 509326776#0 650605162 6062204 988196201#0"/>
    </vehicle>
	<vehicle id="6" depart="0.00">
        <route edges="-352412106 352412106 521221938 521198981 203119343 50429924 583698432 50429918 -354202762 466349883 583705855 469165475 130889758#0 130889758#2 130889758#3 130889758#4 130889758#6 130889758#10 130889758#12 696806633#0 696806633#2 935806772#0 935806772#2 1054633206#0 237743944#0 237743944#2 1049235346#0"/>
    </vehicle>
	<vehicle id="7" depart="0.00">
        <route edges="696806632#0 130908291#0 1049226224#0 130908290#0 130908290#3 130908290#4 237743944#0 237743944#2"/>
    </vehicle>
	<vehicle id="8" depart="0.00">
        <route edges="-50511365#7 50511365#6 -130788227#3 -130788227#1 -421037430#2 6056532#0 45838762#1 971624710 6062876#0 509325421 468450542 130285122#0 126303355#0 347003228#0 347003229#0 347003229#2 589551073#0 1051018092#0 345633934 1051018093#0 589539535#0 589533502#0 468434122#0 468434122#2 695842775 469157093 469157092 1048252755#0 589533511 520537739 589905634 466349884 1049230589 1049226223#0 1049226223#1"/>
    </vehicle>
	<vehicle id="10" depart="0.00">
        <route edges="155011689#0 -297296749#2 297296770#0 6056532#0 45838762#1 971624710 6062876#0 509325421 468450542 130285122#0 126303355#0 347003228#0 347003229#0 347003229#2 589551073#0 1051018092#0 345633934 1051018093#0 589539535#0 589533502#0 468434122#0 468434122#2 695842775 469157093 469157092 468434120#0 345633935#0 345633935#3 345633935#5 -438958617#8 -438958617#6 438958617#6"/>
    </vehicle>
	<vehicle id="11" depart="0.00">
        <route edges="520532355#0 -6060903#4 -6060903#2 -6060903#1 469165492#0 469165492#2 1049287312#0 1049287312#2 126303354#0 126303354#2 345709542#0 1048676964#0 298848145#0 1047793071 298814315#0"/>
    </vehicle>
	<vehicle id="12" depart="0.00">
        <route edges="-29961175#1 -589551086#2 -130802376#2 -397321701#2 -397321698#2 -297368625#5 -297368625#2 -397321700#2 397321700#0"/>
    </vehicle>
	<vehicle id="13" depart="0.00">
        <route edges="-131076063#2 131076063#0 589539520#0 -333922526#3 -333922526#1 -50260020#7 -50260020#5 -50260020#3 -50260020#1 50260019#0 508158268 987879162#0 347003327#0 -347003327#2"/>
    </vehicle>
	<vehicle id="14" depart="0.00">
        <route edges="-476103809#1 354202945#0 50429913 436136929#2-AddedOnRampEdge 436136929#2 -466359338#3 -466359338#1 469159256#0"/>
    </vehicle>
	<vehicle id="15" depart="0.00">
        <route edges="-756406654#1 -347003227 -468433791#1 468433791#0 347003227 756406654#0 347003228#0 347003229#0 347003229#2 589551073#0 1051018092#0 345633934 1051018093#0 589539535#0 589533502#0 469165486#0 469165487 469165488#0 -469165489#1 -469165490#1 -537114618#10 -537114618#8 -537114618#5 -537114618#4 -537114618#2 -537114618#1 -468434115#1 -923370378#11 -923370378#9 -923370378#7 -923370378#6 -923370378#4 6054252#0 6054252#2 130889684#0 50431293#0 469154544"/>
    </vehicle>
	<vehicle id="16" depart="0.00">
        <route edges="-468433793#1 -130927087#2 130889749#0 130889749#2 397316524#0 -397316522 347003330#4 589533563#0 589539518#0 589539518#2 297444238#0 -397318410#1 -397318411#1"/>
    </vehicle>
	<vehicle id="17" depart="0.00">
        <route edges="-130889749#1 130927087#0 468433793#0 354079210 468433792#0 347003228#0 347003229#0 347003229#2 589551073#0 1051018092#0 345633934 1051018093#0 589539535#0 589533502#0 468434122#0 468434122#2 695842775 469157093 469157092 1048252755#0 589533511 520537739 -421076402 50429928 509325916 476103804 476103801"/>
    </vehicle>
	<vehicle id="18" depart="0.00">
        <route edges="589533518#5 50797098#0 50797098#3 50797098#6 50797098#8 130889756#7 130889757#0 698748857#0 589539536#0 589539536#2 589539536#3 589539536#4 590581668#0 590581668#2 1049842802#0 1049842803 1049842804 589539534#0 1049287312#0 1049287312#2 126303354#0 126303354#2 345709542#0 1048676964#0 298848145#0 130285121#0 508158271 508158272#0 50260020#0 50260020#2 50260020#4 50260020#6 -297382770#5 -297382770#2 297382769#0 297382769#4 130802359#0 130802359#2 470165122 -468441884 -120478695#4 -120478695#3 -514191883#2"/>
    </vehicle>
	<vehicle id="19" depart="0.00">
        <route edges="-575569267#14 -575569267#12 -125568108#4 -125568108#2 -125568108#1 -130788190 -130788195 -130788192#2 -321444899#2 130285122#0 126303355#0 347003228#0 347003229#0 347003229#2 589551073#0 1051018092#0 345633934 1051018093#0 589539535#0 589533502#0 468434122#0 468434122#2 695842775 469157093 583698433#0 -130285136#2"/>
    </vehicle>
</routes>
