<?xml version="1.0" encoding="UTF-8"?>

<!-- generated on 2022-10-26 03:08:25 by Eclipse SUMO duarouter Version 1.10.0
	<routes>

    <input>
        <net-file value="/Users/nafiulhassan/veins-5.1/examples/veins/input/washingtondc/20/washingtondc.net.xml"/>
        <route-files value="/Users/nafiulhassan/veins-5.1/examples/veins/input/washingtondc/seed-5/20/washingtondc.trips.xml"/>
    </input>

    <output>
        <output-file value="/Users/nafiulhassan/veins-5.1/examples/veins/input/washingtondc/seed-5/20/washingtondc.rou.xml"/>
        <alternatives-output value="/Users/nafiulhassan/veins-5.1/examples/veins/input/washingtondc/seed-5/20/washingtondc.rou.alt.xml"/>
    </output>

    <report>
        <ignore-errors value="true"/>
    </report>

</configuration>
-->

	<routes>
	<vehicle id="0" depart="0.00">
        <route edges="438958617#7 345633935#7 888235719#0 888235719#3 589533517#0 589533517#2 589533517#3 50428539#0"/>
    </vehicle>
	<vehicle id="1" depart="0.00">
        <route edges="510723128#2 45838764#0 24238018#0 24238018#2 542269372#0 589533564#0 589539521#0 70948801#0 70948801#2 70948801#3 439875858#1 439875858#4 439875858#6 439875858#8 516085385 509646035#0 509646035#2 130788204#0 435424522#2 435424522#4 637150476"/>
    </vehicle>
	<vehicle id="2" depart="0.00">
        <route edges="50428539#6 509326253#0 687108617#0 435106239#0 469154542 6057417#0 6056366#0 6056366#3 130889756#0 130889756#3 130889756#5 130889756#7 130889757#0 698748857#0 589539536#0 589539536#2 589539536#3 589539536#4 590581668#0 590581668#2 1049842802#0 1049842803 1049842804 589539534#0 1049287312#0 1049287312#2 126303354#0 126303354#2 345709542#0 1048676964#0 298848145#0 1047793071 298814315#0 508158270#0 421268132#0 439875857#0 590598870#0 321444898 321444899#0 130788192#0 435424520#0 -420781368#1 -920893151#1 -6057581#6 6057581#6"/>
    </vehicle>
	<vehicle id="3" depart="0.00">
        <route edges="-130908283#4 130908283#3 6058793#0 1049842802#0 1049842803 1049842804 589539534#0 1049287312#0 1049287312#2 126303354#0 126303354#2 345709542#0 1048676964#0 298848145#0 130285121#0 508158271 508158272#0 130889749#0 130889749#2 397316524#0 -397316522 -298814317#2 468433794 397319278#0 298814316 454817812 146537575#0 397319276 297456132#0 397324964#0 397324962 146537578#0 297295058#0 146537585#0 297273914#0 910190956#0 297273915#2"/>
    </vehicle>
	<vehicle id="4" depart="0.00">
        <route edges="687108617#0 435106239#0 469154542 6057417#0 130908289#0 130908289#3 130908289#5 130908289#6 130908289#7 130908289#9 130908289#11 921887474#0 496467785#0 421076400#0 1048252755#0 589533511 520537739 589905634 466349884 1049230589 1049226223#0 1049226223#1 466359339#0"/>
    </vehicle>
	<vehicle id="5" depart="0.00">
        <route edges="6054895#3 50524889#7 50524889#10 -50799230#8 -50799230#6 -50799230#5 -50799230#2 -50799230#1 6057204#0 985426725#0 985426724 468436769#0 6056069#0 589533583#0 589539536#0 589539536#2 589539536#3 589539536#4 590581668#0 590581668#2 1049842802#0 1049842803 1049842804 589539534#0 1049287312#0 1049287312#2 126303354#0 126303354#2 345709542#0 1048676964#0 -347003327#2 -397316204#2 -397316195#1"/>
    </vehicle>
	<vehicle id="6" depart="0.00">
        <route edges="297296762#0 50511237#0 297296770#0 6056532#0 45838762#1 971624710 6062876#0 509325421 50799689#0 321444902#0 321444902#3 -130927087#2 130889749#0 130889749#2 397316524#0 -589539523#2"/>
    </vehicle>
	<vehicle id="7" depart="0.00">
        <route edges="397303092#0 -347003328#2 347003330#0 347003330#4 589533563#0 589539518#0 589539518#2 297380210#0 297380210#2 -297380214#6 -297380214#2 397321698#0 397321701#0"/>
    </vehicle>
	<vehicle id="8" depart="0.00">
        <route edges="-130772954 -126303361#7 468469935#0 468469935#2 468469943#0 535546520#0 535546520#3 347003226 47920785#0 352412073 509646034#0 -509646034#1"/>
    </vehicle>
	<vehicle id="9" depart="0.00">
        <route edges="-6063421#3 6063421#3 6063421#4 292148140#3 50511237#0 297296770#0 6056532#0 45838762#1 971624710 6062876#0 509325421 468450542 130285122#0 126303355#0 347003228#0 347003229#0 347003229#2 589551073#0 1051018092#0 345633934 1051018093#0 589539535#0 589533502#0 469165486#0 469165487 469165488#0 -469165489#1 -469165490#1 -537114618#10 -537114618#8 -537114618#5 -537114618#4 -537114618#2 6062881#0 985067151 130285133#0-AddedOnRampEdge 130285133#0 6056363#0 6056363#2 6056363#3 130889760#0 131463018#0 509326252#0 296971737#0 6057421#0"/>
    </vehicle>
	<vehicle id="10" depart="0.00">
        <route edges="50524889#17 576620616 -345633936#1 543909823#0 985426725#0 985426724 468436769#0 6056069#0 589533583#0 589539536#0 589539536#2 589539536#3 589539536#4 590581668#0 590581668#2 1049842802#0 1049842803 1049842804 589539534#0 1049287312#0 1049287312#2 126303354#0 126303354#2 345709542#0 1048676964#0 298848145#0 1047793071 298814315#0 508158270#0 421268132#0 439875857#0 590598870#0 509326776#0 650605162 6062204 988196201#0 29961175#0 155011691#0 50710195#0 50710195#2 297296749#0 -466352083#1"/>
    </vehicle>
	<vehicle id="11" depart="0.00">
        <route edges="514191882#0 514191883#0 120478695#3 120478695#4 120478695#5 468441885#0 468441885#2 202992519#0 -6057595#2 29961175#0 155011691#0 421037430#0 -421037430#2"/>
    </vehicle>
	<vehicle id="12" depart="0.00">
        <route edges="436136929#2 438964977 130908283#0 130908283#1 130908283#2 130908283#3 6058793#0 1049842802#0 1049842803 1049842804 589539534#0 1049287312#0 1049287312#2 126303354#0 126303354#2 345709542#0 1048676964#0 298848145#0 130285121#0 508158271 508158272#0 130889749#0 130889749#2 397316524#0 -397316522 347003330#4 589533563#0 589539518#0 589539518#2 297380210#0 297380210#2 589539537#0 397327934#0 397327932#0 -397327932#1 -397327934#2"/>
    </vehicle>
	<vehicle id="13" depart="0.00">
        <route edges="-120478418#2 6055551#0 923370378#0 923370378#1 923370378#3 923370378#5 923370378#7 923370378#8 923370378#10 468434115#0 537114618#0 537114618#2 537114618#3 537114618#5 537114618#6 537114618#9 469165490#0 469165490#2 590581668#0 590581668#2 1049842802#0 1049842803 1049842804 589539534#0"/>
    </vehicle>
	<vehicle id="14" depart="0.00">
        <route edges="-50799230#1 6057204#0 985426725#0 985426724 468436769#0 6056069#0 589533583#0 589539536#0 589539536#2 589539536#3 589539536#4 590581668#0 590581668#2 1049842802#0 1049842803 1049842804 589539534#0 1049287312#0 1049287312#2 126303354#0 126303354#2 345709542#0 1048676964#0 298848145#0 130285121#0 508158271 508158272#0 130889749#0 130889749#2 397316524#0 -397316522 -298814317#2 468433794 397319278#0 298814316 454817812 146537575#0 397319276 509649677 397317304 397317307#0 297444235#0 -509645504#3 -509645504#1"/>
    </vehicle>
	<vehicle id="15" depart="0.00">
        <route edges="983121553#1 983121553#2 983121553#3 469165485#0 442066186#0 353283535#0 353283535#2 469159257#0 469159256#0 469159256#3 469159259 436136927#5 436136927#6 436136927#7 121980352 -520532363 -6060903#4 -6060903#2 -6060903#1 589539535#0"/>
    </vehicle>
	<vehicle id="16" depart="0.00">
        <route edges="-923370378#2 923370378#1 923370378#3 923370378#5 923370378#7 923370378#8 923370378#10 468434115#0 537114618#0 537114618#2 537114618#3 537114618#5 537114618#6 537114618#9 469165490#0 469165490#2 590581668#0 590581668#2 1049842802#0 1049842803 1049842804 589539534#0 1049287312#0 1049287312#2 126303354#0 126303354#2 345709542#0 1048676964#0 298848145#0 1047793071 298814315#0 508158270#0 468433793#0 354079210 468433792#0 -756406654#1 -347003227 -468433791#1 468433791#0 347003227 756406654#0"/>
    </vehicle>
	<vehicle id="17" depart="0.00">
        <route edges="354202762 -354202762 50429919 583705854 535520845#0 535520845#1 535520845#2 352412093#0 -352411913#1 -354202945#1 476103809#0 298832254#0 298832261#0 126303356#0 476103811 476103813#0 298815729#0 352412039#0 47920785#0 352412073 509646034#0 434444693#0 130788155#0 131520206#0 650605162 6062204 988196201#0 29961175#0 468469890#0 468469890#2 -296355738#2 -296355738#0 -468469887 -468469894#1 -468469897#1 -468469900#4 -468469900#1 468469900#1"/>
    </vehicle>
	<vehicle id="18" depart="0.00">
        <route edges="-50431293#1 50431293#0 469154544 6063274#0 1049303874#0 130889755#0 130889756#0 130889756#3 130889756#5 130889756#7 130889757#0 698748857#0 589539536#0 589539536#2 589539536#3 589539536#4 590581668#0 590581668#2 1049842802#0 1049842803 1049842804 589539534#0 1049287312#0 1049287312#2 126303354#0 126303354#2 345709542#0 1048676964#0 298848145#0 1047793071 298814315#0 508158270#0 421268132#0 439875857#0 590598870#0 509326776#0 650605162 6062204 988196201#0 29961175#0 155011691#0 50710195#0 50710195#2 297296762#0 -292148140#4 -6063421#5 -6063421#3 6063421#3"/>
    </vehicle>
	<vehicle id="19" depart="0.00">
        <route edges="469159258#1 469159258#2 468469919#0 -468433803 -468433804 -130908282 130908282 298832261#0 298832240 864614824#0"/>
    </vehicle>
</routes>
