<?xml version="1.0" encoding="UTF-8"?>

<!-- generated on 2022-10-26 03:08:22 by Eclipse SUMO duarouter Version 1.10.0
	<routes>

    <input>
        <net-file value="/Users/nafiulhassan/veins-5.1/examples/veins/input/washingtondc/20/washingtondc.net.xml"/>
        <route-files value="/Users/nafiulhassan/veins-5.1/examples/veins/input/washingtondc/seed-0/20/washingtondc.trips.xml"/>
    </input>

    <output>
        <output-file value="/Users/nafiulhassan/veins-5.1/examples/veins/input/washingtondc/seed-0/20/washingtondc.rou.xml"/>
        <alternatives-output value="/Users/nafiulhassan/veins-5.1/examples/veins/input/washingtondc/seed-0/20/washingtondc.rou.alt.xml"/>
    </output>

    <report>
        <ignore-errors value="true"/>
    </report>

</configuration>
-->

	<routes>
	<vehicle id="0" depart="0.00">
        <route edges="583698433#0 -468436769#1 -985426724 421076400#0 1048252755#0 589533511 354436361#0 354436361#1 50429929"/>
    </vehicle>
	<vehicle id="1" depart="0.00">
        <route edges="131076097#0 131076097#1 -297380210#3 -297380210#1 -589539518#3 -589539518#1 -589533563#2 -347003330#6 -347003330#3 347003328#0 -397303092#2 -397303090#1 -175873836#2 130802372#0 130802372#3 589551073#0 1051018092#0 345633934 1051018093#0 589539535#0 589533502#0 469165486#0 469165487 469165488#0 -469165489#1 -469165490#1 -537114618#10 -537114618#8 -537114618#5 -537114618#4 -537114618#2 6062881#0 985067151 130285133#0-AddedOnRampEdge 130285133#0 6056363#0 6056363#2 6056363#3 203119341#0 696806636#0 696806637#0 130908292#0 130908292#2 130908292#3 -6053702#4 -6053702#2 -6053702#1 469151751 -6054355#1"/>
    </vehicle>
	<vehicle id="2" depart="0.00">
        <route edges="323742930#1 323742930#2 925030587 583705856#0 583705856#1 50429925 352412100 130889761 589533582 469157092 468434120#0 345633935#0 345633935#3 345633935#5 345633935#7 888235719#0 888235719#3 50797098#0 130908289#9 130908289#11"/>
    </vehicle>
	<vehicle id="3" depart="0.00">
        <route edges="509325914 -509325914 476103803 323742888 535462247#0 535462247#1 50018069 321477125#3 321477125#4 421075190#1 421075190#2 421075190#3 543909823#0 985426725#0 985426724 468436769#0 -468436769#1 -985426724"/>
    </vehicle>
	<vehicle id="4" depart="0.00">
        <route edges="297380214#0 -26572919#5 397327939#0 397327938 397327933 397327935#0"/>
    </vehicle>
	<vehicle id="5" depart="0.00">
        <route edges="6056363#2 6056363#3 130889760#0 6056366#3 130889756#0 130889756#3 130889756#5 130889756#7 130889757#0 698748857#0 589539536#0 589539536#2 589539536#3 589539536#4 590581668#0 590581668#2 1049842802#0 1049842803 1049842804 589539534#0 1049287312#0 1049287312#2 126303354#0 126303354#2 345709542#0 1048676964#0 298848145#0 1047793071 298814315#0 508158270#0 421268132#0 439875857#0 590598870#0 509326776#0 252140542#0 -202992524#7 29961183#4"/>
    </vehicle>
	<vehicle id="6" depart="0.00">
        <route edges="-698748856#1 698748857#0 589533584#0 695842776#0 695842776#1 520537745 354202762 50429926"/>
    </vehicle>
	<vehicle id="7" depart="0.00">
        <route edges="436136929#2-AddedOnRampEdge 436136929#2 438964977 130908283#0 -130908283#0 -352411913#1 -354202945#1 476103809#0 298832254#0 298832261#0 126303356#0 476103811 476103813#0 298815729#0 352412039#0 47920785#0 352412073 509646034#0 434444693#0 130788155#0 131520206#0 650605162 6062204 988196201#0 6057595#0 202992520#2 202992520#3 -590581593#5 -590581593#3 -590581593#1"/>
    </vehicle>
	<vehicle id="8" depart="0.00">
        <route edges="6056366#0 6056366#3 130889756#0 130889756#3 130889756#5 130889756#7 130889757#0 698748857#0 589533584#0 695842776#0 695842776#1 520537745 466349883 583705855 469165475 130802360#0 130802360#1 469159255 466359342#0 466359342#3 -983121553#5 -983121553#2 -983121553#1 983121553#1"/>
    </vehicle>
	<vehicle id="9" depart="0.00">
        <route edges="520537745 50429919 583705854 535520845#0 535520845#1 323742932 -126303366#1 468434122#0 468434122#2 695842775 469157093 469157092 468434120#0 345633935#0 345633935#3 345633935#5 345633935#7 6054895#0 6054895#2 6054895#3"/>
    </vehicle>
	<vehicle id="10" depart="0.00">
        <route edges="1048676964#0 397327124#0 468433796 397327121#0 347003229#0 347003229#2 589551073#0 1051018092#0 345633934 1051018093#0 589539535#0 589533502#0 468434122#0 468434122#2 695842775 469157093 469157092 468434120#0 345633936#0 49887645#0"/>
    </vehicle>
	<vehicle id="11" depart="0.00">
        <route edges="6054886#0 397329580#0 397329578#0 131076063#0 589539520#0 -333922526#3 -333922526#1 -50260020#7 -50260020#5 -50260020#3 -50260020#1 130927087#0 468433793#0 354079210 468433792#0 -756406654#1 -347003227 -468433791#1 -521200399 -352412039#1 50429905 924793627#0-AddedOnRampEdge 924793627#0 126303361#0 126303361#3 468469935#0"/>
    </vehicle>
	<vehicle id="12" depart="0.00">
        <route edges="297368625#3 297380214#0 297380214#3 -297380210#3 -297380210#1 -589539518#3 -589539518#1 -589533563#2 -347003330#6 -347003330#3 397316186#0 397316195#0 397316204#0 347003327#0 397327124#0 468433796 397327121#0 203119342#0 468433795#0 723610179 -476103813#1 -352412083 -126303356#1 -298832261#2 -298832254#2 -476103809#1 354202945#0 352411913#0 -352412093#2"/>
    </vehicle>
	<vehicle id="13" depart="0.00">
        <route edges="202992522#0 202992522#2 202992524#0 202992524#3 202992524#5 -252140542#2 509325421 468450542 130285122#0 126303355#0 347003228#0 347003229#0 347003229#2 589551073#0 1051018092#0 345633934 1051018093#0 589539535#0 589533502#0 469165486#0 469165487 469165488#0 -469165489#1 -469165490#1 -537114618#10 -537114618#8 -537114618#5 -537114618#4 -537114618#2 6062881#0 985067151 130285133#0-AddedOnRampEdge 130285133#0 6056363#0 6056363#2 6056363#3 130889760#0 131463018#0 6058077#0 583695032 397321711#1 397321711#2 509640269 920636360#0 423607087 1008299672 423608853"/>
    </vehicle>
	<vehicle id="14" depart="0.00">
        <route edges="6057204#0 985426725#0 985426724 468436769#0 6056069#0 589533583#0 589539536#0 589539536#2 589539536#3 589539536#4 590581668#0 590581668#2 1049842802#0 1049842803 1049842804 589539534#0 -469165492#2 -469165492#1 6060903#0 6060903#2 6060903#3 520532363 476103809#0 298832254#0 298832261#0 298832240 864614824#0"/>
    </vehicle>
	<vehicle id="15" depart="0.00">
        <route edges="297380214#3 -297380210#3 -297380210#1 -589539518#3 -589539518#1 -589533563#2 -347003330#6 -347003330#3 347003328#0 -397303092#2 -397303090#1 -175873836#2 130802372#0 130802372#3 589551073#0 1051018092#0 345633934 1051018093#0 589539535#0 589533502#0 469165486#0 469165487 469165488#0 -469165489#1 -469165490#1 469154540#0 26707840#0 698748857#0 589533584#0"/>
    </vehicle>
	<vehicle id="16" depart="0.00">
        <route edges="-6056532#2 6056532#0 6057581#0 6057581#2 6057581#3 6057581#4 6057581#5 6057581#6 920893151#0 420781368#0 435424521#0 308739814#0 435424522#0 435424522#2 435424522#4 -520463951#3 520463951#2"/>
    </vehicle>
	<vehicle id="17" depart="0.00">
        <route edges="397316180#0 397316186#0 397316195#0 397316204#0 347003327#0 397327124#0 468433796 397327121#0 203119342#0 468433795#0 723610179 421077027 126303361#0 126303361#3 126303361#5 130772954 -130772954"/>
    </vehicle>
	<vehicle id="18" depart="0.00">
        <route edges="48018654 -298832235#4 -298832235#3 -298832235#2 -864614823#3 -864614823#1 -298832240 -298832261#2 -298832254#2 -476103809#1 -520532363 -6060903#4 -6060903#2 -6060903#1 589539535#0 589533502#0 469165486#0 469165487 469165488#0 -469165489#1 -469165490#1 -537114618#10 -537114618#8 -537114618#5 -537114618#4 -537114618#2 6062881#0 985067151 130285133#0-AddedOnRampEdge 130285133#0 6056363#0 6056363#2 6056363#3 130889760#0"/>
    </vehicle>
	<vehicle id="19" depart="0.00">
        <route edges="535780677#0 298825115#1 50799606#0 397319279#0 70948803#0 397316176#0 397316171 397316180#0 397316186#0 397316195#0 397316204#0 347003327#0 397327124#0 468433796 397327121#0 347003229#0 347003229#2 589551073#0 1051018092#0 345633934 1051018093#0 589539535#0 589533502#0 468434122#0 468434122#2 695842775 469157093 469157092 468434120#0 543909823#0 985426725#0 985426724 468436769#0"/>
    </vehicle>
</routes>
