<?xml version="1.0" encoding="UTF-8"?>

<!-- generated on 2022-10-26 03:14:35 by Eclipse SUMO duarouter Version 1.10.0
	<routes>

    <input>
        <net-file value="/Users/nafiulhassan/veins-5.1/examples/veins/input/washingtondc/30/washingtondc.net.xml"/>
        <route-files value="/Users/nafiulhassan/veins-5.1/examples/veins/input/washingtondc/seed-1/30/washingtondc.trips.xml"/>
    </input>

    <output>
        <output-file value="/Users/nafiulhassan/veins-5.1/examples/veins/input/washingtondc/seed-1/30/washingtondc.rou.xml"/>
        <alternatives-output value="/Users/nafiulhassan/veins-5.1/examples/veins/input/washingtondc/seed-1/30/washingtondc.rou.alt.xml"/>
    </output>

    <report>
        <ignore-errors value="true"/>
    </report>

</configuration>
-->

	<routes>
	<vehicle id="0" depart="0.00">
        <route edges="-397329578#2 -397329580#1 397329580#0 397329578#0 131076063#0 589539520#0 -333922526#3 -333922526#1 -50260020#7 -50260020#5 -50260020#3 -50260020#1 130927087#0 468433793#0 354079210 468433792#0 347003228#0 347003229#0 347003229#2 589551073#0 1051018092#0 345633934 1051018093#0 589539535#0 589533502#0 468434122#0 468434122#2 695842776#0 695842776#1 520537745 466349883 583705856#0 583705856#1 583705856#2 503185211 50429924 583698432"/>
    </vehicle>
	<vehicle id="1" depart="0.00">
        <route edges="50524889#0 589533518#2 589533518#3 589533518#4 589533518#5 589533517#0 589533517#2 589533517#3 696806637#0 130908292#0 130908292#2 130908292#3 -6053702#4"/>
    </vehicle>
	<vehicle id="2" depart="0.00">
        <route edges="298848145#0 130285121#0 987879162#0 347003327#0 397327124#0 468433796 397327121#0 347003229#0 347003229#2 589551073#0 1051018092#0 345633934 1051018093#0 589539535#0 589533502#0 126303366#0 126303365 6058797 520537749-AddedOnRampEdge 520537749 466359342#0 466359342#3 454815093#0 696806633#0 696806633#2 935806772#0 935806772#2 1054633206#0 237743944#0 237743944#2"/>
    </vehicle>
	<vehicle id="3" depart="0.00">
        <route edges="468433797#0 -468433797#2 837279711#2 837279711#4 1051205229#0 1051205229#1 130889702#0 130889702#3 130889702#4 1052908775#0 130889705#0 130889705#2 697824964#0 454815093#0 696806633#0 696806633#2 935806772#0 935806772#2 1054633206#0 237743944#0 237743944#2 1049235346#0 130908291#0 466359340#0 466359340#1 535462248 476103806 476103805 509325914"/>
    </vehicle>
	<vehicle id="4" depart="0.00">
        <route edges="-345633936#1 543909823#0 985426725#0 985426724 468436769#0 6056069#0 589533583#0 589539536#0 589539536#2 589539536#3 589539536#4 590581668#0 590581668#2 -6058793#2 -130908283#4"/>
    </vehicle>
	<vehicle id="5" depart="0.00">
        <route edges="575569267#13 297401522#0 854143897#0 -920893151#1 -6057581#6 -6057581#5 -6057581#4 -6057581#3 -6057581#2 -6057581#1 45838762#1 971624710 29961183#0 29961183#2 29961183#4 397321704#0 397321703#0 131076097#0 131076097#1 589539537#0 120478696#0 409551583 45838768#0 146537587#0"/>
    </vehicle>
	<vehicle id="6" depart="0.00">
        <route edges="50513886#0 50513886#1 297273916#0 297273916#2 297285722#0 494175930#0 297368443#0 146537579#0 130285135#0 397319284#0 397319281#0 436271294#0 409541717 50799606#0 397319279#0 397319282#0 397319286#0 -305368640#1 -998360408#3 -998360408#0 -397304550 -120478418#2"/>
    </vehicle>
	<vehicle id="7" depart="0.00">
        <route edges="24238018#0 24238018#2 397319281#0 421734517#0 298814317#0 -347003330#3 397316186#0 397316195#0 397316204#0 347003327#0 397327124#0 468433796 397327121#0 203119342#0 468433795#0 723610179 421077027 126303361#0 126303361#3 126303361#5 130772954 696198846#1 48018648#0 468469915#0 48018646#0"/>
    </vehicle>
	<vehicle id="8" depart="0.00">
        <route edges="-521221938 521221938 521198981 203119343 50429924 583698432 520537744 520537746 583705854 535520845#0 535520845#1 323742932 -126303366#1 468434122#0 468434122#2 695842775"/>
    </vehicle>
	<vehicle id="9" depart="0.00">
        <route edges="6055382#0 687108617#0 435106239#0 469154542 6057417#0 6056366#0 6056366#3 130889756#0 130889756#3 130889756#5 130889756#7 130889757#0 698748857#0 589539536#0 589539536#2 589539536#3 589539536#4 590581668#0 590581668#2 1049842802#0 1049842803 1049842804 589539534#0 1049287312#0 1049287312#2 126303354#0 126303354#2 345709542#0 1048676964#0 298848145#0 130285121#0 508158271 508158272#0 130889749#0 130889749#2 397316524#0 -397316522 347003330#4 589533563#0 589539518#0 589539518#2 297380210#0 297380210#2 589539537#0 120478696#0 -131052297#9 -131052297#5"/>
    </vehicle>
	<vehicle id="10" depart="0.00">
        <route edges="-130908059#2 130908059#0 120478695#0 120478695#3 120478695#4 120478695#5 468441885#0 468441885#2 202992519#0 -6057595#2 -988196201#2 -6062204 6062876#0 509325421 468450542 130285122#0 126303355#0 347003228#0 347003229#0 347003229#2 589551073#0 1051018092#0 345633934 1051018093#0 589539535#0 589533502#0 126303366#0 126303365 6058797 520537749-AddedOnRampEdge 520537749 353283534#0 353283534#1"/>
    </vehicle>
	<vehicle id="11" depart="0.00">
        <route edges="6063421#1 6063421#2 6063421#3 6063421#4 292148140#3 50511237#0 297296770#0 -155011691#1 -29961175#1 -589551086#2 -130802376#2 -397321701#2 397321701#0 130802376#0"/>
    </vehicle>
	<vehicle id="12" depart="0.00">
        <route edges="-509646034#1 509646034#0 434444693#0 130788155#0 131520206#0 650605162 6062204 988196201#0 6057595#0 -202992519#2 -468441158#1 -468441885#1 -468441884 -120478695#4 -120478695#3 -120478695#2 -589905511#3 397327936#0 397327937#0 131052512#0"/>
    </vehicle>
	<vehicle id="13" depart="0.00">
        <route edges="-130908283#4 130908283#3 6058793#0 1049842802#0 1049842803 1049842804 589539534#0 1049287312#0 1049287312#2 126303354#0 126303354#2 345709542#0 1048676964#0 298848145#0 1047793071 298814315#0 508158270#0 421268132#0 439875857#0 590598870#0 509326776#0 650605162 6062204 988196201#0 6057595#0 202992520#2 202992520#3 520468342 -520468342"/>
    </vehicle>
	<vehicle id="14" depart="0.00">
        <route edges="203025089#0 203025089#2 297294789#0 494175930#0 297368443#0 146537579#0 130285135#0 397319284#0 397319281#0 436271294#0 409541717 50799606#0 397319279#0 397319282#0 397319286#0 298829677#0"/>
    </vehicle>
	<vehicle id="15" depart="0.00">
        <route edges="-537114618#2 537114618#2 537114618#3 537114618#5 537114618#6 537114618#9 469165490#0 469165490#2 590581668#0 590581668#2 1049842802#0 1049842803 1049842804 589539534#0 -469165492#2 -469165492#1 6060903#0 6060903#2 6060903#3 520532363 476103809#0 298832254#0 298832261#0 126303356#0 476103811 476103813#0 298815729#0 352412039#0 -347003226 -535546520#4"/>
    </vehicle>
	<vehicle id="16" depart="0.00">
        <route edges="-513235538#2 513235538#0 297294791#0 297294792#0 589905511#0 120478695#0 -514191883#2 -514191882#1 -296365351#6 -296365351#5 -296365351#4 -296365351#2 296365351#2"/>
    </vehicle>
	<vehicle id="17" depart="0.00">
        <route edges="-923370378#4 923370378#3 923370378#5 923370378#7 923370378#8 923370378#10 468434115#0 537114618#0 537114618#2 537114618#3 537114618#5 537114618#6 537114618#9 469165490#0 469165490#2 590581668#0 590581668#2 1049842802#0 1049842803 1049842804 589539534#0 1049287312#0 1049287312#2 126303354#0 126303354#2 345709542#0 1048676964#0 298848145#0 130285121#0 508158271 508158272#0 50260020#0 50260020#2 50260020#4 50260020#6 -297382770#5 -297382770#2 297382769#0 297382769#4 130802359#0 130802359#2 -130802359#2"/>
    </vehicle>
	<vehicle id="18" depart="0.00">
        <route edges="575569267#3 -575569267#4 520463951#0 520463951#2 479469615#0 535546520#0 535546520#3 347003226 521200399 468433791#0 347003227 756406654#0 -468433792#1 -354079210 -468433793#1 354079209#0 987879163#0 508158268 987879162#0 -397316204#2 -397316195#1 -397316186#1 -397316180#1 -397316171 -397316176#1 -70948803#2 -397316203#1 397316203#0"/>
    </vehicle>
	<vehicle id="19" depart="0.00">
        <route edges="466359338#0 466359338#2 438964977 -352412093#2 -421061860 126303364 323742932 -126303366#1 469165486#0 469165487 469165488#0 -469165488#1 -469165487"/>
    </vehicle>
	<vehicle id="20" depart="0.00">
        <route edges="987879163#0 508158268 987879162#0 347003327#0 397327124#0 468433796 397327121#0 347003229#0 347003229#2 589551073#0 1051018092#0 345633934 1051018093#0 589539535#0 589533502#0 469165486#0 469165487 469165488#0 -469165489#1 -469165490#1 -537114618#10 -537114618#8 -537114618#5 -537114618#4 -537114618#2 6062881#0 985067151 130285133#0-AddedOnRampEdge 130285133#0 6056363#0 6056363#2 6056363#3 203119341#0 696806636#0 50428539#0 50428539#2 50428539#3 50428539#5 589533504#0 509326127#0 50524889#0 589533518#2 589533518#3"/>
    </vehicle>
	<vehicle id="21" depart="0.00">
        <route edges="-397318415#1 589533564#0 -347003330#6 -347003330#3 397316186#0 397316195#0 397316204#0 347003327#0 397327124#0 468433796 397327121#0 203119342#0 468433795#0 723610179 421077027 108060074#0"/>
    </vehicle>
	<vehicle id="22" depart="0.00">
        <route edges="494175930#0 297368443#0 146537579#0 130285135#0 397319284#0 397319281#0 421734517#0 298814317#0 -347003330#3 397316186#0 397316195#0 397316204#0 347003327#0 397327124#0 468433796 397327121#0 203119342#0 468433795#0 723610179 -476103813#1 -352412083 476103811 476103812"/>
    </vehicle>
	<vehicle id="23" depart="0.00">
        <route edges="6062876#0 650605162 6062204 988196201#0 6057595#0 -202992519#2 -468441158#1 -468441885#1 -468441884 -120478695#4 -120478695#3 -120478695#2 -589905511#3 397327936#0 397327937#0 131052512#0"/>
    </vehicle>
	<vehicle id="24" depart="0.00">
        <route edges="542269314#0 297456132#0 397324964#0 397324962 29961168#0 131052386#0 297294791#0 297294792#0 589905511#0 120478695#0 120478695#3 120478695#4 120478695#5 468441885#0 468441885#2"/>
    </vehicle>
	<vehicle id="25" depart="0.00">
        <route edges="1026906900 130802362#0 130802362#1 1049226224#0 1049226223#0 1049226223#1 696737929#0 696737929#1 696737929#2 130802360#0 130802360#1 469159255 353283535#0 353283535#2 469159257#0 469159256#0 469159256#3 469159259 469159258#0 469159258#1 469159258#2 468469919#0 468469927#0 468469927#2 460536376#0 468469923#0 468469931#0 468469935#0 468469935#2 468469943#0 468469939#0 468469946#0 200019461#0 435424520#0 -420781368#1 -920893151#1 -6057581#6 -6057581#5 -6057581#4 -6057581#3 -6057581#2 -6057581#1 954271698#0 988196201#0 6057595#0 -202992519#2 -468441158#1 -468441885#1 -468441884 -120478695#4 -120478695#3 -120478695#2 397329575#0 397329570 397329572#0"/>
    </vehicle>
	<vehicle id="26" depart="0.00">
        <route edges="590581668#0 590581668#2 -6058793#2 589533502#0 468434122#0 468434122#2 695842776#0 695842776#1 520537745 466349883 583705856#0 583705856#1 583705856#2 503185206 583698431#0"/>
    </vehicle>
	<vehicle id="27" depart="0.00">
        <route edges="321444902#0 321444902#3 -130927087#2 50260020#0 50260020#2 50260020#4 50260020#6 -297382770#5 -297382770#2 397321704#0 397321703#0 -397329578#2 -397329580#1 -6054886#1 -397329577#1 397329577#0"/>
    </vehicle>
	<vehicle id="28" depart="0.00">
        <route edges="-131076063#2 131076063#0 589539520#0 -333922526#3 -333922526#1 -50260020#7 -50260020#5 -50260020#3 -50260020#1 130927087#0 468433793#0 354079210 468433792#0 347003228#0 347003229#0 347003229#2 589551073#0 1051018092#0 345633934 1051018093#0 589539535#0 589533502#0 468434122#0 468434122#2 695842775 469157093 469157092 468434120#0 345633936#0 466349886#0 466349886#2 466349886#3 130788167#0 130788167#1 -589533512#3"/>
    </vehicle>
	<vehicle id="29" depart="0.00">
        <route edges="514191883#0 -120478695#2 -589905511#3 -297294792#2 131052297#0"/>
    </vehicle>
</routes>
