<?xml version="1.0" encoding="UTF-8"?>
<!-- generated on 2022-10-26 03:08:26.918032 by $Id$ UNKNOWN
  options: -n /Users/nafiulhassan/veins-5.1/examples/veins/input/washingtondc/20/washingtondc.net.xml -s 9 -e 20 -o /Users/nafiulhassan/veins-5.1/examples/veins/input/washingtondc/seed-9/20/washingtondc.trips.xml
-->
<routes xmlns:xsi="http://www.w3.org/2001/XMLSchema-instance" xsi:noNamespaceSchemaLocation="http://sumo.dlr.de/xsd/routes_file.xsd">
    <trip id="0" depart="0.00" from="297273916#2" to="130788227#2"/>
    <trip id="1" depart="1.00" from="-397363850#2" to="589539518#0"/>
    <trip id="2" depart="2.00" from="-125568108#2" to="29961175#0"/>
    <trip id="3" depart="3.00" from="6054355#0" to="-29961175#1"/>
    <trip id="4" depart="4.00" from="397317307#0" to="435424521#0"/>
    <trip id="5" depart="5.00" from="-202992520#8" to="130802362#1"/>
    <trip id="6" depart="6.00" from="476103806" to="252140542#3"/>
    <trip id="7" depart="7.00" from="49887645#0" to="-45838763#1"/>
    <trip id="8" depart="8.00" from="-575569267#16" to="-397316171"/>
    <trip id="9" depart="9.00" from="321444902#3" to="6057812#0"/>
    <trip id="10" depart="10.00" from="409551582" to="50524890#8"/>
    <trip id="11" depart="11.00" from="130889749#2" to="50429594"/>
    <trip id="12" depart="12.00" from="-352412093#2" to="-923370378#0"/>
    <trip id="13" depart="13.00" from="468469915#0" to="49299976"/>
    <trip id="14" depart="14.00" from="131076097#1" to="-333922462#1"/>
    <trip id="15" depart="15.00" from="-6057581#5" to="-50799230#1"/>
    <trip id="16" depart="16.00" from="-648026207#1" to="520532355#0"/>
    <trip id="17" depart="17.00" from="-496467787#1" to="590598870#0"/>
    <trip id="18" depart="18.00" from="589905639" to="-292148140#4"/>
    <trip id="19" depart="19.00" from="130889702#3" to="298814315#0"/>
</routes>
