<?xml version="1.0" encoding="UTF-8"?>

<!-- generated on 2022-10-26 03:15:50 by Eclipse SUMO duarouter Version 1.10.0
	<routes>

    <input>
        <net-file value="/Users/nafiulhassan/veins-5.1/examples/veins/input/washingtondc/30/washingtondc.net.xml"/>
        <route-files value="/Users/nafiulhassan/veins-5.1/examples/veins/input/washingtondc/seed-19/80/washingtondc.trips.xml"/>
    </input>

    <output>
        <output-file value="/Users/nafiulhassan/veins-5.1/examples/veins/input/washingtondc/seed-19/80/washingtondc.rou.xml"/>
        <alternatives-output value="/Users/nafiulhassan/veins-5.1/examples/veins/input/washingtondc/seed-19/80/washingtondc.rou.alt.xml"/>
    </output>

    <report>
        <ignore-errors value="true"/>
    </report>

</configuration>
-->

	<routes>
	<vehicle id="0" depart="0.00">
        <route edges="468469927#0 468469927#2 460536376#0 468469923#0 468469931#0 -126303361#4 -126303361#1 -421077027 -723610179 -468433795#1 -203119342#1 -397327121#1 -468433796 -397327124#1 -347003327#2 74100353#0 508158273 508158268"/>
    </vehicle>
	<vehicle id="1" depart="0.00">
        <route edges="345633935#5 438958617#9 961869114#0 496467785#0 985426724 468436769#0 6056069#0 589533583#0 589539536#0 589539536#2 589539536#3 589539536#4 590581668#0 590581668#2 1049842802#0 1049842803 1049842804 589539534#0 1049287312#0 1049287312#2 126303354#0 126303354#2 345709542#0 1048676964#0 298848145#0 1047793071 298814315#0 508158270#0 421268132#0 321444902#3"/>
    </vehicle>
	<vehicle id="2" depart="0.00">
        <route edges="130889759#2 590605528#0 590605528#2 590605528#3 696737929#0 696737929#1 696737929#2 130802360#0 130802360#1 469159255 353283535#0 353283535#2 469159257#0 469159256#0 469159256#3 469159259 469159258#0 469159258#1 469159258#2 468469919#0 468469927#0 468469927#2 460536376#0 298832235#0 298832235#3 298832235#4 48018653 48018648#0 468469915#0 468469915#1 130772931#1 575569268 130772928#0 121863780#0 121863780#1 988487224#0 48018630 988487226"/>
    </vehicle>
	<vehicle id="3" depart="0.00">
        <route edges="-923370378#2 923370378#1 923370378#3 923370378#5 923370378#7 923370378#8 923370378#10 468434115#0 537114618#0 537114618#2 537114618#3 537114618#5 537114618#6 537114618#9 469165490#0 469165490#2 -469165488#1 -469165487 -469165486#1 126303366#0 126303365 352412093#0 -438964977 -466359338#3 -466359338#1 469159256#0 469159256#3 469159259 -436136927#4 -436136927#2 -436136927#1"/>
    </vehicle>
	<vehicle id="4" depart="0.00">
        <route edges="-6057421#1 6054254#0 469154543 397360055#0 50431293#0 469154544 6063274#0 1049303874#0 6055383#0 -6055383#2"/>
    </vehicle>
	<vehicle id="5" depart="0.00">
        <route edges="108060074#0 864614823#0 864614823#2 468469923#0 468469931#0 468469935#0 468469935#2 468469943#0 468469939#0 468469946#0 200019461#0 435424520#0 -420781368#1 -920893151#1 -6057581#6 -6057581#5 -6057581#4 -6057581#3"/>
    </vehicle>
	<vehicle id="6" depart="0.00">
        <route edges="-397303092#2 -397303090#1 421259825#0 347003327#0 397327124#0 468433796 397327121#0 203119342#0 468433795#0 723610179 421077027 126303361#0 126303361#3 126303361#5 130772954 696198846#1 48018648#0 468469915#0 468469915#1 130772931#1 575569268 130772928#0 121863780#0 121863780#1 988487224#0 48018630 988487225#0 130889704#0 130889704#1 1051205228#0"/>
    </vehicle>
	<vehicle id="7" depart="0.00">
        <route edges="1049226223#1 696737929#0 696737929#1 696737929#2 130802360#0 130802360#1 469159255 353283534#0 353283534#1 323742931 126303364 323742932 -126303366#1 469165486#0 469165487 469165488#0 590581668#0 590581668#2 1049842802#0 1049842803 1049842804 589539534#0 1049287312#0 1049287312#2 126303354#0 126303354#2 345709542#0 1048676964#0 298848145#0 130285121#0 508158271 508158272#0 130889749#0 130889749#2 397316524#0 -397316522 -298814317#2 468433794 397319278#0 298814316 454817812 397319281#0"/>
    </vehicle>
	<vehicle id="8" depart="0.00">
        <route edges="-50260020#5 50260020#4 50260020#6 333922526#0 333922526#2 347003329#0 589539518#0 589539518#2 297380210#0 297380210#2 -297380214#6 -297380214#2"/>
    </vehicle>
	<vehicle id="9" depart="0.00">
        <route edges="-50260020#7 -50260020#5 -50260020#3 -50260020#1 130927087#0 468433793#0 354079210 468433792#0 347003228#0 347003229#0 347003229#2 589551073#0 1051018092#0 345633934 1051018093#0 589539535#0 589533502#0 126303366#0 126303365 6058797 520537749-AddedOnRampEdge 520537749 353283535#0 353283535#2"/>
    </vehicle>
	<vehicle id="10" depart="0.00">
        <route edges="130889758#0 130889758#2 130889758#3 130889758#4 130889758#6 130889758#10 130889758#12 696806633#0 696806633#2 590605528#0 590605528#2 590605528#3 696737929#0 696737929#1 696737929#2 130802360#0 130802360#1 469159255 353283534#0 353283534#1 323742931 126303364 535520845#2 352412093#0 -352411913#1 -354202945#1 476103809#0 298832254#0 298832261#0 126303356#0 476103811 476103812 49999718#1"/>
    </vehicle>
	<vehicle id="11" depart="0.00">
        <route edges="520468343#2 468469894#0 468469887 296355738#0 296355738#1 -589551087#2 -202992519#2 -468441158#1 -468441885#1 -468441884 -120478695#4 -120478695#3 -120478695#2 -589905511#3 -297294792#2 131052297#0"/>
    </vehicle>
	<vehicle id="12" depart="0.00">
        <route edges="-352411913#1 352411913#0 -352412093#2 -421061860 126303364 323742932 -126303366#1 468434122#0 468434122#2 695842775 469157093 583698433#0 696806631#0 -496467787#1 496467785#0"/>
    </vehicle>
	<vehicle id="13" depart="0.00">
        <route edges="50431292#0 6057417#0 6056366#0 6056366#3 130889756#0 130889756#3 130889756#5 130889756#7 130889757#0 698748857#0 589533584#0 695842776#0 695842776#1 520537745 466349883 583705855 469165475 130889758#0 130889758#2 130889758#3"/>
    </vehicle>
	<vehicle id="14" depart="0.00">
        <route edges="468434113#2 50524890#5 6061544 -589533512#0 696806632#0 130908291#0 1049226224#0 1049226223#0 1049226223#1 696737929#0 696737929#1 696737929#2 130802360#0 130802360#1 469159255 466359342#0 466359342#3 -983121553#5"/>
    </vehicle>
	<vehicle id="15" depart="0.00">
        <route edges="6057421#2 -6057421#3 -6057421#1 6054254#0 50431292#0 6057417#0 6056366#0 6056366#3 130285119#0 130285119#2 130285119#3 923370378#10 468434115#0 537114618#0 537114618#2 537114618#3 537114618#5 537114618#6 537114618#9"/>
    </vehicle>
	<vehicle id="16" depart="0.00">
        <route edges="509646034#0 -509646034#1 -352412073 -47920785#1 -352412039#1 -298815729#1 -723610179 -468433795#1 -203119342#1 347003229#0 347003229#2 589551073#0 1051018092#0 345633934 1051018093#0 589539535#0 589533502#0 469165486#0 469165487 469165488#0 -469165489#1 -469165490#1 -537114618#10 -537114618#8 -537114618#5 -537114618#4 -537114618#2 6062881#0 985067151 130285133#0-AddedOnRampEdge 130285133#0 6056363#0 6056363#2 6056363#3 203119341#0 696806636#0"/>
    </vehicle>
	<vehicle id="17" depart="0.00">
        <route edges="-537114618#2 537114618#2 537114618#3 537114618#5 537114618#6 537114618#9 469154540#0 26707840#0 698748857#0 589533584#0 695842776#0 695842776#1 520537745 354202762"/>
    </vehicle>
	<vehicle id="18" depart="0.00">
        <route edges="50009629#0 48018648#0 468469915#0 48018646#0 48018646#2 1052604510#0 -435424522#5 -435424522#3 -435424522#1 -308739814#1 -435424521#1 -420781368#1 -920893151#1 -6057581#6 -6057581#5 -6057581#4 -6057581#3 -6057581#2 -6057581#1 954271698#0 988196201#0 6057595#0 -202992519#2 -468441158#1 -468441885#1 -468441884 -120478695#4 -120478695#3 -514191883#2 -514191882#1 -296365351#6 296365351#6 514191882#0"/>
    </vehicle>
	<vehicle id="19" depart="0.00">
        <route edges="130889758#2 130889758#3 130889758#4 130889758#6 130889758#10 130889758#12 696806633#0 696806633#2 590605528#0 590605528#2 590605528#3 696737929#0 696737929#1 696737929#2 130802360#0 130802360#1 469159255 353283535#0 353283535#2 469159257#0 469159256#0 469159256#3 469159259 469159258#0 469159258#1 469159258#2 468469919#0 468469927#0 468469927#2 460536376#0 468469923#0 468469931#0 468469935#0 468469935#2 468469943#0 468469939#0 468469946#0 200019461#0 435424520#0 -420781368#1"/>
    </vehicle>
	<vehicle id="20" depart="0.00">
        <route edges="439875857#0 590598870#0 321444898 130285122#0 126303355#0 347003228#0 347003229#0 347003229#2 589551073#0 1051018092#0 345633934 1051018093#0 589539535#0 589533502#0 468434122#0 468434122#2 695842776#0 695842776#1 520537745 354202762 -354202762"/>
    </vehicle>
	<vehicle id="21" depart="0.00">
        <route edges="476103811 476103813#0 298815729#0 352412039#0 47920785#0 352412073 509646034#0 434444693#0 130788192#0 130788195 130788190 125568108#0 -125568108#1"/>
    </vehicle>
	<vehicle id="22" depart="0.00">
        <route edges="296365351#0 296365351#2 296365351#3 296365351#5 296365351#6 514191882#0 -297380211#3 297380211#0"/>
    </vehicle>
	<vehicle id="23" depart="0.00">
        <route edges="-397318414#1 397318414#0 397318412#0 397327934#0 397327932#0 397327939#0 397327938 397327933 397327935#0 589905511#0 120478695#0 -514191883#2 297380211#4"/>
    </vehicle>
	<vehicle id="24" depart="0.00">
        <route edges="305660797#0 -305660797#0 -1054351818#1 421259825#0 74100353#0 508158273 508158270#0 421268132#0 439875858#1 439875858#4 439875858#6 439875858#8 516085385 509646035#0 509646035#2 130788204#0"/>
    </vehicle>
	<vehicle id="25" depart="0.00">
        <route edges="6054255#3 6054255#6 6054255#7 -297294784#2 494175930#0 297368443#0 146537579#0 130285135#0 -333922782#1 -333922765#2 589539518#0"/>
    </vehicle>
	<vehicle id="26" depart="0.00">
        <route edges="6053702#2 6053702#3 509326344#0 6054254#0 50431292#0 6057417#0 6056366#0 6056366#3 130889756#0 130889756#3 130889756#5 130889756#7 130889757#0 698748857#0 589539536#0 589539536#2 589539536#3 589539536#4 590581668#0 590581668#2 1049842802#0 1049842803 1049842804 589539534#0 1049287312#0 1049287312#2 126303354#0 126303354#2 345709542#0 1048676964#0 298848145#0 130285121#0 508158271 508158272#0 130889749#0 130889749#2 397316524#0 -397316522 347003330#4 589533563#0 589539518#0 589539518#2 -589539518#3"/>
    </vehicle>
	<vehicle id="27" depart="0.00">
        <route edges="-130908282 -438960035#1 -468433805 -468433806#1 1051018092#0 345633934 1051018093#0 589539535#0 589533502#0 468434122#0 468434122#2 695842776#0 695842776#1 520537745 466349883 583705855 469165475 130802360#0 130802360#1"/>
    </vehicle>
	<vehicle id="28" depart="0.00">
        <route edges="-397316186#1 -397316180#1 -397316171 -397316176#1 47471725#0"/>
    </vehicle>
	<vehicle id="29" depart="0.00">
        <route edges="-6057544#2 6057544#2 6057544#3 -131052512#5 -131052512#3 -131052512#2 -131052512#1 -397327937#1 -397327936#1"/>
    </vehicle>
	<vehicle id="30" depart="0.00">
        <route edges="-756406654#1 -347003227 -468433791#1 -521200399 -352412039#1 -298815729#1 -476103813#1 -352412083 -126303356#1 -298832261#2 -298832254#2 -476103809#1 354202945#0 352411913#0 130908283#0 130908283#1 130908283#2 130908283#3"/>
    </vehicle>
	<vehicle id="31" depart="0.00">
        <route edges="50260020#6 -297382770#5 -297382770#2 297382769#0 297382769#4 130802359#0 130802359#2 470165122 -468441884 -120478695#4 -120478695#3 -514191883#2 -514191882#1 -296365351#6 -296365351#5 296365351#5"/>
    </vehicle>
	<vehicle id="32" depart="0.00">
        <route edges="-998360408#0 -397304550 423615732#0 998360408#0 998360408#1 397315033#0 -126303362#1 -130802371#2 -397303092#2 -397303090#1 421259825#0 74100353#0 508158273 508158270#0 421268132#0 439875857#0 590598870#0 509326776#0 650605162 6062204 988196201#0 29961175#0 468469890#0 468469890#2 -296355738#2 -296355738#0 -468469887 -468469894#1 -468469897#1 -468469900#4 -468469900#1 -468469900#0 -468469904#1 468469904#0 468469900#0"/>
    </vehicle>
	<vehicle id="33" depart="0.00">
        <route edges="-203025089#2 203025089#2 297294789#0 297294784#0 513235538#0 297294791#0 297294792#0 589905511#0 120478695#0 120478695#3 120478695#4 120478695#5 468441885#0 468441885#2 202992519#0 -6057595#2 29961175#0 155011691#0 421037430#0 130788227#0 130788227#2 -50511365#7"/>
    </vehicle>
	<vehicle id="34" depart="0.00">
        <route edges="469159255 353283534#0 353283534#1 323742930#1 323742930#2 50429920"/>
    </vehicle>
	<vehicle id="35" depart="0.00">
        <route edges="-352412083 476103811 476103812 49999718#1 -468433795#1 -203119342#1 -397327121#1 -468433796 -397327124#1 298848145#0 130285121#0 508158271 508158272#0 130889749#0 130889749#2 397316524#0 -397316522 347003330#4 589533563#0 589539518#0 589539518#2 297380210#0 297380210#2 589539537#0 397327934#0 397327932#0 397327939#0 397327938 -297368625#2"/>
    </vehicle>
	<vehicle id="36" depart="0.00">
        <route edges="321444902#3 354079209#0 987879163#0 508158268 987879162#0 347003327#0 397327124#0 468433796"/>
    </vehicle>
	<vehicle id="37" depart="0.00">
        <route edges="-130788167#2 -130788167#0 130802362#0 130802362#1 1049226224#0 1049226223#0 1049226223#1 696737929#0 696737929#1 696737929#2 130802360#0 130802360#1 469159255 353283535#0 353283535#2 469159257#0 469159256#0 469159256#3 469159259 469159258#0 469159258#1 469159258#2 468469919#0 468469927#0 468469927#2 460536376#0 468469923#0 468469931#0 468469935#0 468469935#2 468469943#0 468469939#0 468469946#0 200019461#0 435424520#0 -420781368#1 -920893151#1 -6057581#6 -6057581#5 -6057581#4 -6057581#3 -6057581#2 -6057581#1 954271698#0 988196201#0 6057595#0 202992520#2"/>
    </vehicle>
	<vehicle id="38" depart="0.00">
        <route edges="-6061387#2 397329580#0 397329578#0 131076063#0 589539520#0 -333922526#3 -333922526#1 333922462#0 648026207#0 321444900 321444898 321444899#0 130788192#0 130788195 308739814#0 -308739814#1"/>
    </vehicle>
	<vehicle id="39" depart="0.00">
        <route edges="-468433806#1 -6061944#3 126303354#0 126303354#2 345709542#0 1048676964#0 -347003327#2 -397316204#2 -397316195#1 -397316186#1 -397316180#1 -397316171 -397316176#1 -70948803#2"/>
    </vehicle>
	<vehicle id="40" depart="0.00">
        <route edges="297295058#0 297285722#0 494175930#0 297368443#0 146537579#0 130285135#0 397319284#0 397319281#0 436271294#0 409541717 50799606#0 397319279#0 70948803#0 397316176#0 397316171 397316180#0 -397316180#1"/>
    </vehicle>
	<vehicle id="41" depart="0.00">
        <route edges="436271294#0 409541717 397319283 421734517#0 298814317#0 397316523#0 -397316524#1 -130889749#2 -130889749#1 130927087#0 421268132#0 439875857#0 590598870#0 509326776#0 650605162 6062204 988196201#0 6057595#0 202992520#2 -202992520#2 589551087#0"/>
    </vehicle>
	<vehicle id="42" depart="0.00">
        <route edges="469154542 6057417#0 6056366#0 6056366#3 130889756#0 130889756#3 130889756#5 130889756#7 130889757#0 698748857#0 589539536#0 589539536#2 589539536#3 589539536#4 590581668#0 590581668#2 1049842802#0 1049842803 1049842804 589539534#0 1049287312#0 1049287312#2 126303354#0 126303354#2 345709542#0 1048676964#0 298848145#0 130285121#0 508158271 508158272#0 130889749#0 130889749#2 397316524#0 -397316522 347003330#4 589533563#0 589539518#0 589539518#2 297380210#0 -297380210#1"/>
    </vehicle>
	<vehicle id="43" depart="0.00">
        <route edges="468433793#0 354079210 468433792#0 -468433792#1 -354079210 -468433793#1 421268132#0 439875858#1 439875858#4 439875858#6"/>
    </vehicle>
	<vehicle id="44" depart="0.00">
        <route edges="-126303356#1 -298832261#2 -130908282 130908282 468433804 203119345#0 1060936417 468433799#0 468433799#1 468433798#0 837279711#2 837279711#4 1051205229#0 1051205229#1 130889702#0 130889702#3 130889702#4"/>
    </vehicle>
	<vehicle id="45" depart="0.00">
        <route edges="468433798#0 837279711#2 837279711#4 1051205229#0 1051205229#1 130889702#0 130889702#3 130889702#4 1052908775#0 130889705#0 130889705#2 697824964#0 454815093#0 696806633#0 696806633#2 590605528#0 590605528#2 590605528#3 696737929#0 696737929#1 696737929#2"/>
    </vehicle>
	<vehicle id="46" depart="0.00">
        <route edges="6059107#4 -397327937#1 -397327936#1 -397327935#1 -397327933 -397327938 -397327939#1 -397327932#1 -397327934#2 -397318412#1 -397318414#1 -397318410#1 -397318411#1 397317310#0 397319284#0 397319281#0"/>
    </vehicle>
	<vehicle id="47" depart="0.00">
        <route edges="397364246#2 126303356#0 476103811 476103812 49999718#1 -468433795#1 -203119342#1 -397327121#1 -468433796 -397327124#1 298848145#0 130285121#0 508158271 508158272#0 50260020#0 50260020#2 70948801#3"/>
    </vehicle>
	<vehicle id="48" depart="0.00">
        <route edges="-50799230#2 -50799230#1 6057204#0 985426725#0 985426724 468436769#0 6056069#0 589533583#0 589539536#0 589539536#2 589539536#3 589539536#4 590581668#0 590581668#2 1049842802#0 1049842803 1049842804 589539534#0 1049287312#0 1049287312#2 126303354#0 126303354#2 345709542#0 1048676964#0 298848145#0 1047793071 298814315#0 508158270#0 421268132#0 439875857#0 590598870#0 321444898 321444899#0"/>
    </vehicle>
	<vehicle id="49" depart="0.00">
        <route edges="-296786737#1 305660797#3 469165490#0 469165490#2 590581668#0 590581668#2 1049842802#0 1049842803 1049842804 589539534#0 1049287312#0 1049287312#2 126303354#0 126303354#2 345709542#0 1048676964#0 298848145#0 1047793071 298814315#0 508158270#0 421268132#0 439875857#0 590598870#0 509326776#0 650605162 6062204 988196201#0 29961175#0 155011691#0 50710195#0"/>
    </vehicle>
	<vehicle id="50" depart="0.00">
        <route edges="468433799#0 -468433799#0 -468433800 -468433803 -468433804 -298832254#2 -476103809#1 -520532363 -6060903#4 -6060903#2 -6060903#1 589539535#0 589533502#0 468434122#0 468434122#2 695842775 469157093 469157092 468434120#0 345633935#0 50799230#0 50799230#2 -50799230#2"/>
    </vehicle>
	<vehicle id="51" depart="0.00">
        <route edges="-479469615#3 -435424522#5 -435424522#3 -435424522#1 -308739814#1 -435424521#1 -420781368#1 -920893151#1 -6057581#6 -6057581#5 -6057581#4 -6057581#3 -6057581#2 -6057581#1 954271698#0 988196201#0 6057595#0 -202992519#2 -468441158#1 -468441885#1 -468441884 -120478695#4 -120478695#3 -120478695#2 -589905511#3 397327936#0 397327937#0 333922766#0 333922766#2"/>
    </vehicle>
	<vehicle id="52" depart="0.00">
        <route edges="50429925 352412100 130889761 583698434 583698432 520537744 520537746 583705854 535520845#0 535520845#1 323742932 -126303366#1 469165486#0 469165487 469165488#0 -469165489#1 -469165490#1 -537114618#10 -537114618#8 -537114618#5 -537114618#4 -537114618#2 6062881#0 985067151 130285133#0-AddedOnRampEdge 130285133#0 6056363#0 6056363#2 6056363#3 130889760#0 131463018#0 6058077#0 583695032 397321711#1 397321711#2 -397355102#2"/>
    </vehicle>
	<vehicle id="53" depart="0.00">
        <route edges="1052908774#0 130889705#0 130889705#2 697824964#0 454815093#0 696806633#0 696806633#2 935806772#0 935806772#2 1054633206#0 237743944#0 237743944#2 1049235346#0 130908291#0 466359340#0 466359340#1 535462247#0 535462247#1 50018069 321477125#3"/>
    </vehicle>
	<vehicle id="54" depart="0.00">
        <route edges="-6057421#1 6054254#0 50431292#0 6057417#0 6056366#0 6056366#3 130889756#0 130889756#3 130889756#5 130889756#7 130889757#0 698748857#0 589539536#0 589539536#2 589539536#3 589539536#4 590581668#0 590581668#2 1049842802#0 1049842803 1049842804 589539534#0 1049287312#0 1049287312#2 126303354#0 126303354#2 345709542#0 1048676964#0 298848145#0 130285121#0 508158271 508158272#0 50260020#0 50260020#2 50260020#4 50260020#6 -297382770#5 -297382770#2 297382769#0 297382769#4 130802359#0 130802359#2 470165122 468450553#0 590581594#0"/>
    </vehicle>
	<vehicle id="56" depart="0.00">
        <route edges="466352083#0 -297296749#2 297296770#0 6056532#0 6057581#0 6057581#2 6057581#3 6057581#4 6057581#5 6057581#6 920893151#0 420781368#0 435424521#0 308739814#0 435424522#0 435424522#2 435424522#4 48018661#0 130772931#1 575569268 130772928#0 121863780#0 121863780#1 988487224#0 988487222 988487223 409551582 48018654 -298832235#4 -298832235#3 -298832235#2 468469923#0"/>
    </vehicle>
	<vehicle id="57" depart="0.00">
        <route edges="-864614823#3 864614823#2 468469923#0 468469931#0 468469935#0 468469935#2 468469943#0 468469939#0 468469946#0 200019461#0 435424520#0 -420781368#1 -920893151#1 -6057581#6 -6057581#5 -6057581#4 -6057581#3 -6057581#2 -6057581#1 45838762#1 971624710 29961183#0 29961183#2 29961183#4"/>
    </vehicle>
	<vehicle id="58" depart="0.00">
        <route edges="175873836#0 397303090#0 397303092#0 -347003328#2 347003330#0 347003330#4 589533563#0 589539518#0 589539518#2 297380210#0"/>
    </vehicle>
	<vehicle id="59" depart="0.00">
        <route edges="-297294784#2 494175930#0 297368443#0 146537579#0 130285135#0 397319284#0 397319281#0 421734517#0 298814317#0 -347003330#3 347003328#0 -397303092#2 -397303090#1 -175873836#2 130802372#0 130802372#3 589551073#0 1051018092#0 345633934 1051018093#0 589539535#0 589533502#0 468434122#0 468434122#2 695842776#0 695842776#1 520537746 583705854"/>
    </vehicle>
	<vehicle id="60" depart="0.00">
        <route edges="-438958617#6 438958617#6 438958617#7 438958617#9 961869114#0 496467785#0 985426724 468436769#0 6056069#0 589533583#0 589539536#0 589539536#2 589539536#3 589539536#4 590581668#0 590581668#2 1049842802#0 1049842803 1049842804 589539534#0 1049287312#0 1049287312#2 126303354#0 126303354#2 345709542#0 1048676964#0 298848145#0 1047793071 298814315#0 508158270#0 421268132#0 439875857#0 590598870#0 509326776#0 650605162 6062204 988196201#0 29961175#0 468469890#0 468469890#2 -296355738#2 -296355738#0 -468469887 -468469894#1 468469894#0 468469887 296355738#0"/>
    </vehicle>
	<vehicle id="61" depart="0.00">
        <route edges="6060903#2 -6060903#2 -6060903#1 589539535#0 589533502#0 468434122#0 468434122#2 695842775 469157093 469157092 468434120#0 345633936#0 466349886#0 321477125#3"/>
    </vehicle>
	<vehicle id="62" depart="0.00">
        <route edges="589539523#0 -397316524#1 -130889749#2 -130889749#1 130927087#0 468433793#0 354079210 468433792#0 347003228#0 347003229#0 347003229#2 589551073#0 1051018092#0 345633934 1051018093#0 589539535#0 589533502#0 469165486#0 469165487 469165488#0 -469165489#1 -469165490#1 -537114618#10 -537114618#8 -537114618#5 -537114618#4 -537114618#2 -537114618#1 -468434115#1 -923370378#11 -923370378#9 -923370378#7 -923370378#6 -6055383#2"/>
    </vehicle>
	<vehicle id="63" depart="0.00">
        <route edges="297295058#0 297285722#0 494175930#0 297368443#0 146537579#0 130285135#0 397319284#0 397319281#0 421734517#0 298814317#0 -347003330#3 347003328#0 130802371#0"/>
    </vehicle>
	<vehicle id="64" depart="0.00">
        <route edges="1052908775#0 983121554#4 983121554#6 983121554#7 983121554#9 469159256#0 469159256#3 469159259 469159258#0 469159258#1 469159258#2 468469919#0 468469927#0 468469927#2 460536376#0 468469923#0 468469931#0 468469935#0 468469935#2 468469943#0 468469939#0 468469946#0 130788204#0"/>
    </vehicle>
	<vehicle id="65" depart="0.00">
        <route edges="24238018#0 24238018#2 542269372#0 589533564#0 589539521#0 70948801#0 70948801#2 70948801#3 439875858#1 439875858#4 439875858#6 439875858#8 516085385 509646035#0 509646035#2 130788204#0 130788207#0 130788207#2 -575569267#6 575569267#5"/>
    </vehicle>
	<vehicle id="66" depart="0.00">
        <route edges="923370378#10 468434115#0 537114618#0 537114618#2 537114618#3 537114618#5 537114618#6 537114618#9 469165490#0 469165490#2 590581668#0 590581668#2 1049842802#0 1049842803 1049842804 589539534#0 1049287312#0 1049287312#2 126303354#0 126303354#2 345709542#0 1048676964#0 -347003327#2"/>
    </vehicle>
	<vehicle id="67" depart="0.00">
        <route edges="468450580#0 509645504#1 509645504#2 297444228#0 297759292#0 297759292#1 409546597 130285135#0 397319284#0 397319281#0 421734517#0 298814317#0 -347003330#3 347003328#0 -397303092#2 -397303090#1 -175873836#2 345709542#0"/>
    </vehicle>
	<vehicle id="68" depart="0.00">
        <route edges="131052386#6 -296365924#2 296365924#2 6055387#0 6059107#3 6059107#4 131052512#0 131052512#2 131052512#3 131052512#4 297380211#0 297380211#4 297380211#7 590581593#0 590581593#2 6057192#0 202992520#7 202992520#8 -202992520#8"/>
    </vehicle>
	<vehicle id="69" depart="0.00">
        <route edges="130788167#0 -130788167#0 130802362#0 130802362#1 1049226224#0 1049226223#0 1049226223#1"/>
    </vehicle>
	<vehicle id="70" depart="0.00">
        <route edges="130788207#2 575569267#7 575569267#9 575569267#11 575569267#13 297401522#0 -397363850#2 397363850#1"/>
    </vehicle>
	<vehicle id="71" depart="0.00">
        <route edges="130788207#2 575569267#7 575569267#9 575569267#11 575569267#13 575569267#15 297400412#0 297401518#0 -494988146#2 -494988146#1 -50511365#7 -50511365#4 -50511365#3 -50511365#2 -958872539#4"/>
    </vehicle>
	<vehicle id="72" depart="0.00">
        <route edges="-6060903#4 6060903#3 520532363 476103809#0 298832254#0 298832261#0 126303356#0 476103811 476103813#0 298815729#0 352412039#0 -347003226 347003226 -352412039#1 50429905 924793627#0-AddedOnRampEdge"/>
    </vehicle>
	<vehicle id="73" depart="0.00">
        <route edges="130889758#4 130889758#6 130889758#10 130889758#12 696806633#0 696806633#2 590605528#0 590605528#2 590605528#3 696737929#0 696737929#1 696737929#2 130802360#0 130802360#1 469159255 353283534#0 353283534#1 323742931 126303364 323742932 -126303366#1 469165486#0 469165487 469165488#0 -469165489#1 -469165490#1 -537114618#10 -537114618#8 -537114618#5 -537114618#4 -537114618#2 -537114618#1 -468434115#1 -923370378#11 -923370378#9 -923370378#7 -923370378#6 -923370378#4 -923370378#2 923370378#1"/>
    </vehicle>
	<vehicle id="74" depart="0.00">
        <route edges="-468433797#2 837279711#2 837279711#4 1051205229#0 1051205229#1 130889702#0 130889702#3 130889702#4 1052908775#0 130889705#0 130889705#2 697824964#0 454815093#0 696806633#0 696806633#2 935806772#0 935806772#2 1054633206#0 237743944#0 237743944#2 1049235346#0 130889700#0 468434114#0 468434113#0 468434113#1"/>
    </vehicle>
	<vehicle id="75" depart="0.00">
        <route edges="397317310#0 397319284#0 397319281#0 421734517#0 298814317#0 -347003330#3 347003328#0 -397303092#2 -397303090#1 -175873836#2 130802372#0 130802372#3 131448559#0 397364246#2 126303356#0 476103810"/>
    </vehicle>
	<vehicle id="76" depart="0.00">
        <route edges="333922462#0 648026207#0 321444900 321444898 130285122#0 126303355#0 347003228#0 347003229#0 347003229#2 589551073#0 1051018092#0 345633934 1051018093#0 589539535#0 589533502#0 469165486#0 469165487 469165488#0 -469165489#1 -469165490#1 469154540#0 26707840#0 698748857#0 589539536#0 589539536#2"/>
    </vehicle>
	<vehicle id="77" depart="0.00">
        <route edges="397363850#1 854143897#0 -920893151#1 -6057581#6 -6057581#5 -6057581#4 -6057581#3 -6057581#2 -6057581#1 45838762#1 971624710 29961183#0 29961183#2 29961183#4 397321704#0 397321703#0 131076097#0 131076097#1 589539537#0 120478696#0 409551583 397324964#0 397324962 203025090#0 203025090#2 -203025090#3"/>
    </vehicle>
	<vehicle id="78" depart="0.00">
        <route edges="469151751 423602319#0 -423602319#1 -423602679 6053702#0 6053702#2 6053702#3 509326344#0 6054254#0 50431292#0 696806634#0 435106239#0"/>
    </vehicle>
	<vehicle id="79" depart="0.00">
        <route edges="-589539520#2 589539520#0 -333922526#3 -333922526#1 -50260020#7 -50260020#5 -50260020#3 -50260020#1 130927087#0 468433793#0 354079210 468433792#0 -756406654#1 -347003227 -468433791#1 49999716#0 49999716#2"/>
    </vehicle>
</routes>
