<?xml version="1.0" encoding="UTF-8"?>

<!-- generated on 2022-10-26 03:16:20 by Eclipse SUMO duarouter Version 1.10.0
	<routes>

    <input>
        <net-file value="/Users/nafiulhassan/veins-5.1/examples/veins/input/washingtondc/30/washingtondc.net.xml"/>
        <route-files value="/Users/nafiulhassan/veins-5.1/examples/veins/input/washingtondc/seed-27/30/washingtondc.trips.xml"/>
    </input>

    <output>
        <output-file value="/Users/nafiulhassan/veins-5.1/examples/veins/input/washingtondc/seed-27/30/washingtondc.rou.xml"/>
        <alternatives-output value="/Users/nafiulhassan/veins-5.1/examples/veins/input/washingtondc/seed-27/30/washingtondc.rou.alt.xml"/>
    </output>

    <report>
        <ignore-errors value="true"/>
    </report>

</configuration>
-->

	<routes>
	<vehicle id="0" depart="0.00">
        <route edges="468433793#0 354079210 468433792#0 347003228#0 347003229#0 347003229#2 589551073#0 1051018092#0 345633934 1051018093#0 589539535#0 589533502#0 469165486#0 469165487 469165488#0"/>
    </vehicle>
	<vehicle id="1" depart="0.00">
        <route edges="70948801#2 70948801#3 439875857#0 590598870#0 509326776#0 650605162 6062204 988196201#0 29961175#0 155011691#0 421037430#0 -47916247#4 -47916247#2"/>
    </vehicle>
	<vehicle id="2" depart="0.00">
        <route edges="-297296749#2 297296770#0 6056532#0 45838762#1 971624710 6062876#0 509325421 468450542 130285122#0 126303355#0 347003228#0 347003229#0 347003229#2 589551073#0 1051018092#0 345633934 1051018093#0 589539535#0 589533502#0 468434122#0 468434122#2 695842776#0 695842776#1 520537746 583705854 535520845#0"/>
    </vehicle>
	<vehicle id="3" depart="0.00">
        <route edges="120478695#4 120478695#5 468441885#0 468441885#2 202992519#0 -6057595#2 29961175#0 155011691#0 6056532#0 6057581#0 6057581#2 6057581#3 6057581#4 6057581#5 6057581#6 920893151#0 420781368#0 435424521#0 308739814#0 435424522#0 130788207#0 130788207#2 130788207#4 130788207#6"/>
    </vehicle>
	<vehicle id="4" depart="0.00">
        <route edges="521198981 203119343 50429924 583698432 520537744 520537746 583705854 535520845#0 535520845#1 535520845#2 352412093#0 -352411913#1 -354202945#1 476103809#0 298832254#0 298832261#0 126303356#0 476103811 476103813#0 298815729#0 352412039#0 47920785#0 352412073 509646034#0 434444693#0 130788155#0 131520206#0 650605162 6062204 988196201#0 29961175#0 468469890#0 468469890#2 -296355738#2 -296355738#0 -468469887 -468469894#1 -468469897#1 -468469900#4"/>
    </vehicle>
	<vehicle id="5" depart="0.00">
        <route edges="6056366#0 6056366#3 130889756#0 130889756#3 130889756#5 130889756#7 130889757#0 698748857#0 589539536#0 589539536#2 589539536#3 589539536#4 590581668#0 590581668#2 1049842802#0 1049842803 1049842804 589539534#0 1049287312#0 1049287312#2 126303354#0 126303354#2 345709542#0 1048676964#0 298848145#0 130285121#0 508158271 508158272#0 130889749#0 130889749#2 397316524#0 -397316522 -298814317#2 468433794 397319278#0 298814316 454817812 146537575#0 397319276 509649677 397317304 397317307#0 297444235#0 297444228#0 297759292#0 297759292#1"/>
    </vehicle>
	<vehicle id="6" depart="0.00">
        <route edges="-297380214#2 -397329572#1 -397329570 -397329575#1 -130908059#2 -6057544#5 -6057544#2 6057544#2"/>
    </vehicle>
	<vehicle id="7" depart="0.00">
        <route edges="397324964#0 397324962 297368443#0 146537579#0 130285135#0 397319284#0 397319281#0 421734517#0 298814317#0 -347003330#3 347003328#0 -397303092#2 -397303090#1 -175873836#2 130802372#0 130802372#3 131448559#0 397364246#2 298832240 -298832240"/>
    </vehicle>
	<vehicle id="8" depart="0.00">
        <route edges="575569267#7 575569267#9 -125568108#4 -125568108#2 -125568108#1 -130788190 -130788195 435424520#0 -420781368#1 -920893151#1 -6057581#6 -6057581#5 -6057581#4 -6057581#3 -6057581#2 -6057581#1 -6056532#2 50710195#0"/>
    </vehicle>
	<vehicle id="9" depart="0.00">
        <route edges="50428539#6 509326253#0 687108617#0 435106239#0 469154542 6057417#0 6056366#0 6056366#3 130889756#0 130889756#3 130889756#5 130889756#7 130889757#0 698748857#0 589539536#0 589539536#2 589539536#3 589539536#4 -469165488#1 -469165487 -469165486#1 126303366#0 126303365 352412093#0 -438964977 -466359338#3 -466359338#1 469159256#0 469159256#3 469159259 469159258#0 469159258#1 469159258#2 468469919#0 1060936417 468433799#0 468433799#1 468433798#0 468433797#0 468433797#3"/>
    </vehicle>
	<vehicle id="10" depart="0.00">
        <route edges="988196201#0 -988196201#2 -6062204 6062876#0 509325421 50799689#0 321444902#0 321444902#3 354079209#0 987879163#0 508158268 987879162#0 421258870#0 397303090#0 397303092#0 130802371#0 126303362#0 -126303362#1"/>
    </vehicle>
	<vehicle id="11" depart="0.00">
        <route edges="924793627#0 108060074#0 864614824#0 203119345#0 468469927#0 468469927#2 460536376#0"/>
    </vehicle>
	<vehicle id="12" depart="0.00">
        <route edges="-6053702#1 6053702#0 6053702#2 6053702#3 509326344#0 6054254#0 50431292#0 6057417#0 6056366#0 6056366#3 130889756#0 130889756#3 130889756#5 130889756#7 130889757#0 698748857#0 589539536#0 589539536#2 589539536#3 589539536#4 590581668#0 590581668#2 1049842802#0 1049842803 1049842804 589539534#0 1049287312#0 1049287312#2 126303354#0 126303354#2 345709542#0 1048676964#0 298848145#0 1047793071 298814315#0 508158270#0 421268132#0 439875858#1 439875858#4 439875858#6 439875858#8 434444693#0"/>
    </vehicle>
	<vehicle id="13" depart="0.00">
        <route edges="121980352 354202945#0 50429913 436136929#2-AddedOnRampEdge 436136929#2 438964976#0 520537749-AddedOnRampEdge 520537749 466359342#0 466359342#3 454815093#0 696806633#0 696806633#2 935806772#0 935806772#2 1054633206#0 237743944#0 237743944#2 1049235346#0 130908291#0 466359340#0"/>
    </vehicle>
	<vehicle id="14" depart="0.00">
        <route edges="476103809#0 298832254#0 298832261#0 126303356#0 476103811 476103812 49999718#1 -468433795#1 -203119342#1 -397327121#1 -468433796 -397327124#1 298848145#0 130285121#0 508158271 508158272#0 130889749#0 130889749#2 397316524#0 -397316522 347003330#4 589533563#0 589539518#0 589539518#2 297380210#0 297380210#2 589539537#0 397327934#0 397327932#0 397327939#0 397327938 397327933 397327935#0 397327936#0 397327937#0 333922766#0 333922766#2 333922766#4"/>
    </vehicle>
	<vehicle id="15" depart="0.00">
        <route edges="-352411913#1 352411913#0 -352412093#2 -421061860 126303364 323742932 -126303366#1 469165486#0 469165487 469165488#0 -469165489#1 -469165490#1 -537114618#10 -537114618#8 -537114618#5 -537114618#4 -537114618#2 6062881#0 985067151 130285133#0-AddedOnRampEdge 130285133#0 130889756#3 130889756#5 130889756#7"/>
    </vehicle>
	<vehicle id="16" depart="0.00">
        <route edges="-998360408#3 998360408#1 397315033#0 -126303362#1 -130802371#2 -397303092#2 -397303090#1 -175873836#2 130802372#0 130802372#3 589551073#0 1051018092#0 345633934 1051018093#0 6060903#0 6060903#2 6060903#3 520532363 -121980352 121980352 354202945#0 50429913"/>
    </vehicle>
	<vehicle id="17" depart="0.00">
        <route edges="6061387#0 6061387#3 -202992524#2 589551086#0 29961175#0 155011691#0 50710195#0 50710195#2"/>
    </vehicle>
	<vehicle id="18" depart="0.00">
        <route edges="352412039#0 -347003226 347003226 -352412039#1 -298815729#1 -476103813#1 -352412083 -126303356#1 -298832261#2 -130908282 130908282 468433804 -468433804"/>
    </vehicle>
	<vehicle id="19" depart="0.00">
        <route edges="47916243#0 397315033#0 -126303362#1 -130802371#2 -347003328#2 347003330#0 347003330#4 589533563#0 589539518#0 589539518#2 297380210#0 297380210#2 -297380214#6 -297380214#2 -397329572#1 -397329570 -397329575#1 -130908059#2 -6057544#5 -6057544#2"/>
    </vehicle>
	<vehicle id="20" depart="0.00">
        <route edges="998338690#0 998338690#6 47916249#0 45838762#1 971624710 6062876#0 509325421 468450542 130285122#0 126303355#0 347003228#0 347003229#0 347003229#2 589551073#0 1051018092#0 345633934 1051018093#0 589539535#0 589533502#0 469165486#0 469165487 469165488#0 -469165489#1 -469165490#1 -537114618#10 -537114618#8 -537114618#5 -537114618#4 -537114618#2 -537114618#1 -468434115#1 -923370378#11 -923370378#9 -923370378#7 -923370378#6 -923370378#4 -923370378#2 -923370378#0 -6055551#1 -468434116#1"/>
    </vehicle>
	<vehicle id="21" depart="0.00">
        <route edges="920893151#0 397327118#0 131520206#0 509325421 468450542 130285122#0 126303355#0 347003228#0 347003229#0 347003229#2 589551073#0 1051018092#0 345633934 1051018093#0 589539535#0 589533502#0 468434122#0 468434122#2 695842775 469157093 469157092 468434120#0 345633936#0 466349886#0 466349886#2 466349886#3 -130788158#1"/>
    </vehicle>
	<vehicle id="22" depart="0.00">
        <route edges="508158268 987879162#0 347003327#0 397327124#0 468433796 397327121#0 347003229#0 347003229#2 131448559#0 397364246#2 126303356#0"/>
    </vehicle>
	<vehicle id="23" depart="0.00">
        <route edges="397327121#0 -397327121#1 -468433796 -397327124#1 298848145#0 130285121#0 508158271 508158272#0 130889749#0 130889749#2 397316524#0 -397316522 347003330#4 589533563#0 589539518#0 589539518#2 297380210#0 297380210#2 589539537#0 120478696#0 -131052297#9 131052297#6"/>
    </vehicle>
	<vehicle id="25" depart="0.00">
        <route edges="521198982 -521198982 -354202762 50429919 583705854 535520845#0 535520845#1 323742932 -126303366#1 469165486#0 469165487 469165488#0 -469165489#1 -469165490#1 -537114618#10 -537114618#8 -537114618#5 -537114618#4 -537114618#2 6062881#0 985067151 130285133#0-AddedOnRampEdge 130285133#0 6056363#0 6056363#2 6056363#3 130889760#0 6056366#3 130285119#0 130285119#2"/>
    </vehicle>
	<vehicle id="26" depart="0.00">
        <route edges="130788155#0 131520206#0 509325421 468450542 130285122#0 126303355#0 347003228#0 347003229#0 347003229#2 589551073#0 1051018092#0 345633934 1051018093#0 589539535#0 589533502#0 468434122#0 468434122#2 695842775 469157093 469157092 468434120#0 345633935#0 50799230#0 50799230#2 50799230#4 50799230#6"/>
    </vehicle>
	<vehicle id="27" depart="0.00">
        <route edges="-468450579#1 468450580#0 509645504#1 509645504#2 297444228#0 297759292#0 297759292#1 409546597 130285135#0 397319284#0 397319281#0 421734517#0 298814317#0 -347003330#3 347003328#0 -397303092#2 -397303090#1 -175873836#2 130802372#0 130802372#3 589551073#0 1051018092#0 345633934 1051018093#0 589539535#0 589533502#0 469165486#0 469165487 469165488#0 -469165489#1 -469165490#1 469154540#0 26707840#0 698748856#0 468436770 130285136#0"/>
    </vehicle>
	<vehicle id="28" depart="0.00">
        <route edges="333922765#0 -333922765#2 -589533563#2 -347003330#6 -347003330#3 397316186#0 397316195#0 397316204#0 347003327#0 397327124#0 468433796 397327121#0 203119342#0 468433795#0 723610179 -476103813#1 -352412083 -126303356#1 -298832261#2 -298832254#2 -476103809#1 354202945#0 352411913#0 -352412093#2 323742930#0 323742930#1"/>
    </vehicle>
	<vehicle id="29" depart="0.00">
        <route edges="-468433804 468433804 203119345#0 468469927#0 468469927#2 460536376#0 468469923#0 468469931#0 468469935#0 468469935#2 468469943#0 468469939#0 468469946#0 200019461#0 130788195 130788190 125568108#0 125568108#2 125568108#3 575569267#11 575569267#13 575569267#15 297400412#0 297401518#0 -494988146#2 -494988146#1 -50511365#7 -50511365#4 50511365#4"/>
    </vehicle>
</routes>
