<?xml version="1.0" encoding="UTF-8"?>
<!-- generated on 2022-10-26 03:14:37.815802 by $Id$ UNKNOWN
  options: -n /Users/nafiulhassan/veins-5.1/examples/veins/input/washingtondc/30/washingtondc.net.xml -s 1 -e 80 -o /Users/nafiulhassan/veins-5.1/examples/veins/input/washingtondc/seed-1/80/washingtondc.trips.xml
-->
<routes xmlns:xsi="http://www.w3.org/2001/XMLSchema-instance" xsi:noNamespaceSchemaLocation="http://sumo.dlr.de/xsd/routes_file.xsd">
    <trip id="0" depart="0.00" from="-397329578#2" to="583698432"/>
    <trip id="1" depart="1.00" from="50524889#0" to="-6053702#4"/>
    <trip id="2" depart="2.00" from="298848145#0" to="237743944#2"/>
    <trip id="3" depart="3.00" from="468433797#0" to="509325914"/>
    <trip id="4" depart="4.00" from="-345633936#1" to="-130908283#4"/>
    <trip id="5" depart="5.00" from="575569267#13" to="146537587#0"/>
    <trip id="6" depart="6.00" from="50513886#0" to="-120478418#2"/>
    <trip id="7" depart="7.00" from="24238018#0" to="48018646#0"/>
    <trip id="8" depart="8.00" from="-521221938" to="695842775"/>
    <trip id="9" depart="9.00" from="6055382#0" to="-131052297#5"/>
    <trip id="10" depart="10.00" from="-130908059#2" to="353283534#1"/>
    <trip id="11" depart="11.00" from="6063421#1" to="130802376#0"/>
    <trip id="12" depart="12.00" from="-509646034#1" to="131052512#0"/>
    <trip id="13" depart="13.00" from="-130908283#4" to="-520468342"/>
    <trip id="14" depart="14.00" from="203025089#0" to="298829677#0"/>
    <trip id="15" depart="15.00" from="-537114618#2" to="-535546520#4"/>
    <trip id="16" depart="16.00" from="-513235538#2" to="296365351#2"/>
    <trip id="17" depart="17.00" from="-923370378#4" to="-130802359#2"/>
    <trip id="18" depart="18.00" from="575569267#3" to="397316203#0"/>
    <trip id="19" depart="19.00" from="466359338#0" to="-469165487"/>
    <trip id="20" depart="20.00" from="987879163#0" to="589533518#3"/>
    <trip id="21" depart="21.00" from="-397318415#1" to="108060074#0"/>
    <trip id="22" depart="22.00" from="494175930#0" to="476103812"/>
    <trip id="23" depart="23.00" from="6062876#0" to="131052512#0"/>
    <trip id="24" depart="24.00" from="542269314#0" to="468441885#2"/>
    <trip id="25" depart="25.00" from="1026906900" to="397329572#0"/>
    <trip id="26" depart="26.00" from="590581668#0" to="583698431#0"/>
    <trip id="27" depart="27.00" from="321444902#0" to="397329577#0"/>
    <trip id="28" depart="28.00" from="-131076063#2" to="-589533512#3"/>
    <trip id="29" depart="29.00" from="514191883#0" to="131052297#0"/>
    <trip id="30" depart="30.00" from="-468434116#1" to="397303090#0"/>
    <trip id="31" depart="31.00" from="476103805" to="468469890#0"/>
    <trip id="32" depart="32.00" from="130802372#0" to="202992520#7"/>
    <trip id="33" depart="33.00" from="321477125#4" to="50797098#6"/>
    <trip id="34" depart="34.00" from="345633935#7" to="130889757#0"/>
    <trip id="35" depart="35.00" from="298825115#1" to="-130927087#2"/>
    <trip id="36" depart="36.00" from="-202992524#4" to="469165492#0"/>
    <trip id="37" depart="37.00" from="983121553#2" to="397360057#0"/>
    <trip id="38" depart="38.00" from="130889759#2" to="-468433804"/>
    <trip id="39" depart="39.00" from="305660797#3" to="971624710"/>
    <trip id="40" depart="40.00" from="50710195#0" to="352412106"/>
    <trip id="41" depart="41.00" from="589533564#0" to="-537114618#1"/>
    <trip id="42" depart="42.00" from="323742932" to="696806633#2"/>
    <trip id="43" depart="43.00" from="397327935#0" to="296355738#1"/>
    <trip id="44" depart="44.00" from="-6059056#1" to="354436361#2"/>
    <trip id="45" depart="45.00" from="70948801#2" to="-120478695#4"/>
    <trip id="46" depart="46.00" from="509325914" to="521200399"/>
    <trip id="47" depart="47.00" from="590605528#3" to="503185206"/>
    <trip id="48" depart="48.00" from="520537743#1" to="323742931"/>
    <trip id="49" depart="49.00" from="397319278#0" to="131076097#0"/>
    <trip id="50" depart="50.00" from="-296355738#0" to="589539521#0"/>
    <trip id="51" depart="51.00" from="397321705#0" to="-494988146#1"/>
    <trip id="52" depart="52.00" from="321444900" to="297382770#3"/>
    <trip id="53" depart="53.00" from="130772931#1" to="126303355#0"/>
    <trip id="54" depart="54.00" from="354079210" to="436136929#0"/>
    <trip id="55" depart="55.00" from="435424522#4" to="296355738#0"/>
    <trip id="56" depart="56.00" from="-130908283#2" to="-521221938"/>
    <trip id="57" depart="57.00" from="-468450579#1" to="397327936#0"/>
    <trip id="58" depart="58.00" from="589533582" to="509646035#2"/>
    <trip id="59" depart="59.00" from="514191882#0" to="520537748"/>
    <trip id="60" depart="60.00" from="-6054255#2" to="575569267#3"/>
    <trip id="61" depart="61.00" from="468469900#4" to="-305660797#1"/>
    <trip id="62" depart="62.00" from="-130788190" to="-130788155#2"/>
    <trip id="63" depart="63.00" from="50431292#0" to="-589551092#1"/>
    <trip id="64" depart="64.00" from="-397304550" to="436136929#2-AddedOnRampEdge"/>
    <trip id="65" depart="65.00" from="126303361#5" to="-297380211#6"/>
    <trip id="66" depart="66.00" from="-466352083#1" to="345633935#7"/>
    <trip id="67" depart="67.00" from="-468433799#1" to="-6059056#2"/>
    <trip id="68" depart="68.00" from="47916247#3" to="26707982#0"/>
    <trip id="69" depart="69.00" from="1052604510#0" to="297296762#0"/>
    <trip id="70" depart="70.00" from="-130889749#1" to="130889705#0"/>
    <trip id="71" depart="71.00" from="131076097#0" to="-469165490#1"/>
    <trip id="72" depart="72.00" from="-397304549#1" to="6054886#0"/>
    <trip id="73" depart="73.00" from="323742888" to="-50511365#7"/>
    <trip id="74" depart="74.00" from="423608853" to="520537749"/>
    <trip id="75" depart="75.00" from="-130802359#1" to="-130788192#2"/>
    <trip id="76" depart="76.00" from="-435424521#1" to="479469615#0"/>
    <trip id="77" depart="77.00" from="-466352083#1" to="470165122"/>
    <trip id="78" depart="78.00" from="468469931#0" to="354079210"/>
    <trip id="79" depart="79.00" from="-520463951#1" to="923370378#7"/>
</routes>
