<?xml version="1.0" encoding="UTF-8"?>
<!-- generated on 2022-10-26 03:14:40.329540 by $Id$ UNKNOWN
  options: -n /Users/nafiulhassan/veins-5.1/examples/veins/input/washingtondc/30/washingtondc.net.xml -s 2 -e 40 -o /Users/nafiulhassan/veins-5.1/examples/veins/input/washingtondc/seed-2/40/washingtondc.trips.xml
-->
<routes xmlns:xsi="http://www.w3.org/2001/XMLSchema-instance" xsi:noNamespaceSchemaLocation="http://sumo.dlr.de/xsd/routes_file.xsd">
    <trip id="0" depart="0.00" from="698748857#0" to="696198846#1"/>
    <trip id="1" depart="1.00" from="-296355738#0" to="-308739814#1"/>
    <trip id="2" depart="2.00" from="575569267#11" to="50009632"/>
    <trip id="3" depart="3.00" from="468469890#2" to="1008299672"/>
    <trip id="4" depart="4.00" from="423615732#0" to="421268132#0"/>
    <trip id="5" depart="5.00" from="397329570" to="-45838766#0"/>
    <trip id="6" depart="6.00" from="202992519#0" to="130889758#0"/>
    <trip id="7" depart="7.00" from="494988146#2" to="988487223"/>
    <trip id="8" depart="8.00" from="696806631#0" to="354079210"/>
    <trip id="9" depart="9.00" from="24222606" to="-6057581#4"/>
    <trip id="10" depart="10.00" from="-155011691#1" to="-130908283#1"/>
    <trip id="11" depart="11.00" from="297294789#0" to="1049230589"/>
    <trip id="12" depart="12.00" from="130889704#0" to="6052895#0"/>
    <trip id="13" depart="13.00" from="347003229#2" to="397317310#0"/>
    <trip id="14" depart="14.00" from="-575569267#10" to="-130889749#2"/>
    <trip id="15" depart="15.00" from="1054351817" to="-397360056#2"/>
    <trip id="16" depart="16.00" from="323742888" to="998360408#0"/>
    <trip id="17" depart="17.00" from="468469915#0" to="-468469900#0"/>
    <trip id="18" depart="18.00" from="6054252#2" to="509646034#0"/>
    <trip id="19" depart="19.00" from="50260020#4" to="6055551#0"/>
    <trip id="20" depart="20.00" from="50513886#1" to="509325916"/>
    <trip id="21" depart="21.00" from="130285136#0" to="961869114#0"/>
    <trip id="22" depart="22.00" from="837279711#2" to="-466359338#3"/>
    <trip id="23" depart="23.00" from="50429929" to="47916247#0"/>
    <trip id="24" depart="24.00" from="297273915#2" to="347003227"/>
    <trip id="25" depart="25.00" from="298825115#1" to="6058193#0"/>
    <trip id="26" depart="26.00" from="305660797#1" to="537114618#2"/>
    <trip id="27" depart="27.00" from="130285136#0" to="590581593#2"/>
    <trip id="28" depart="28.00" from="6054895#0" to="296365351#5"/>
    <trip id="29" depart="29.00" from="397321700#0" to="6057581#3"/>
    <trip id="30" depart="30.00" from="496467785#0" to="297401518#0"/>
    <trip id="31" depart="31.00" from="-520468342" to="1051018093#0"/>
    <trip id="32" depart="32.00" from="470165122" to="-468433797#3"/>
    <trip id="33" depart="33.00" from="6056363#0" to="-6057581#4"/>
    <trip id="34" depart="34.00" from="6056532#0" to="1033847613#0"/>
    <trip id="35" depart="35.00" from="70948801#2" to="476103801"/>
    <trip id="36" depart="36.00" from="321444899#0" to="323742930#1"/>
    <trip id="37" depart="37.00" from="468433797#0" to="397329575#0"/>
    <trip id="38" depart="38.00" from="1049226224#0" to="-50511365#3"/>
    <trip id="39" depart="39.00" from="323742930#2" to="6061944#0"/>
</routes>
