<?xml version="1.0" encoding="UTF-8"?>
<!-- generated on 2022-10-26 03:08:22.943915 by $Id$ UNKNOWN
  options: -n /Users/nafiulhassan/veins-5.1/examples/veins/input/washingtondc/20/washingtondc.net.xml -s 1 -e 20 -o /Users/nafiulhassan/veins-5.1/examples/veins/input/washingtondc/seed-1/20/washingtondc.trips.xml
-->
<routes xmlns:xsi="http://www.w3.org/2001/XMLSchema-instance" xsi:noNamespaceSchemaLocation="http://sumo.dlr.de/xsd/routes_file.xsd">
    <trip id="0" depart="0.00" from="-397329578#2" to="583698432"/>
    <trip id="1" depart="1.00" from="50524889#0" to="-6053702#4"/>
    <trip id="2" depart="2.00" from="298848145#0" to="237743944#2"/>
    <trip id="3" depart="3.00" from="468433797#0" to="509325914"/>
    <trip id="4" depart="4.00" from="-345633936#1" to="-130908283#4"/>
    <trip id="5" depart="5.00" from="575569267#13" to="146537587#0"/>
    <trip id="6" depart="6.00" from="50513886#0" to="-120478418#2"/>
    <trip id="7" depart="7.00" from="24238018#0" to="48018646#0"/>
    <trip id="8" depart="8.00" from="-521221938" to="695842775"/>
    <trip id="9" depart="9.00" from="6055382#0" to="-131052297#5"/>
    <trip id="10" depart="10.00" from="-130908059#2" to="353283534#1"/>
    <trip id="11" depart="11.00" from="6063421#1" to="130802376#0"/>
    <trip id="12" depart="12.00" from="-509646034#1" to="131052512#0"/>
    <trip id="13" depart="13.00" from="-130908283#4" to="-520468342"/>
    <trip id="14" depart="14.00" from="203025089#0" to="298829677#0"/>
    <trip id="15" depart="15.00" from="-537114618#2" to="-535546520#4"/>
    <trip id="16" depart="16.00" from="-513235538#2" to="296365351#2"/>
    <trip id="17" depart="17.00" from="-923370378#4" to="-130802359#2"/>
    <trip id="18" depart="18.00" from="575569267#3" to="397316203#0"/>
    <trip id="19" depart="19.00" from="466359338#0" to="-469165487"/>
</routes>
