<?xml version="1.0" encoding="UTF-8"?>

<!-- generated on 2022-10-26 03:16:02 by Eclipse SUMO duarouter Version 1.10.0
	<routes>

    <input>
        <net-file value="/Users/nafiulhassan/veins-5.1/examples/veins/input/washingtondc/30/washingtondc.net.xml"/>
        <route-files value="/Users/nafiulhassan/veins-5.1/examples/veins/input/washingtondc/seed-22/80/washingtondc.trips.xml"/>
    </input>

    <output>
        <output-file value="/Users/nafiulhassan/veins-5.1/examples/veins/input/washingtondc/seed-22/80/washingtondc.rou.xml"/>
        <alternatives-output value="/Users/nafiulhassan/veins-5.1/examples/veins/input/washingtondc/seed-22/80/washingtondc.rou.alt.xml"/>
    </output>

    <report>
        <ignore-errors value="true"/>
    </report>

</configuration>
-->

	<routes>
	<vehicle id="0" depart="0.00">
        <route edges="70948803#0 397316176#0 397316171 397316180#0 397316186#0 397316195#0 397316204#0 347003327#0 397327124#0 468433796 397327121#0 347003229#0 347003229#2 589551073#0 1051018092#0 345633934 1051018093#0 589539535#0 589533502#0 468434122#0 468434122#2 695842775 469157093 469157092 1048252755#0 589533511 520537739 -421076402"/>
    </vehicle>
	<vehicle id="1" depart="0.00">
        <route edges="-130889749#1 130927087#0 421268132#0 439875857#0 590598870#0 321444898 321444899#0 130788192#0 130788195 130788190 125568108#0 125568108#2 125568108#3 575569267#11 575569267#13 575569267#15 297400412#0 998338690#6"/>
    </vehicle>
	<vehicle id="2" depart="0.00">
        <route edges="-469165486#1 469165486#0 469165487 469165488#0 590581668#0 590581668#2 1049842802#0 1049842803 1049842804 589539534#0 1049287312#0 1049287312#2 126303354#0 126303354#2 345709542#0 1048676964#0 298848145#0 130285121#0 508158271 508158272#0 130889749#0 130889749#2 397316524#0 -397316522 -298814317#2 468433794 397319278#0 298814316 454817812 146537575#0 397319276 297456132#0 397324964#0 397324962 203025090#0 203025090#2 -397321697#1"/>
    </vehicle>
	<vehicle id="3" depart="0.00">
        <route edges="468433797#0 -468433797#2 -468433798#1 -468433799#1 -468433799#0 -468433800 468469927#0 468469927#2 460536376#0 468469923#0 468469931#0 468469935#0 468469935#2 468469943#0 535546520#0 535546520#3 347003226 47920785#0 352412073 509646034#0 434444693#0 -321444899#2 130285122#0 126303355#0"/>
    </vehicle>
	<vehicle id="4" depart="0.00">
        <route edges="6052882#0 435424522#0 435424522#2 435424522#4 479469615#0 535546520#0 535546520#3 347003226 521200399 468433791#0 347003227 756406654#0 347003228#0 347003229#0 347003229#2 589551073#0 1051018092#0 345633934 1051018093#0 589539535#0 589533502#0 469165486#0 469165487 469165488#0 -469165489#1 -469165490#1 -537114618#10 -537114618#8 -537114618#5 -537114618#4 -537114618#2 -537114618#1"/>
    </vehicle>
	<vehicle id="6" depart="0.00">
        <route edges="421268132#0 439875857#0 6057193#0 -648026207#1 -333922462#1 -297382770#5 -297382770#2 397321704#0 397321703#0 -397329578#2 -397329580#1 6061387#0"/>
    </vehicle>
	<vehicle id="7" depart="0.00">
        <route edges="469154544 6063274#0 1049303874#0 130889755#0 130889756#0 130889756#3 130889756#5 130889756#7 130889757#0 698748857#0 589539536#0 589539536#2 589539536#3 589539536#4 590581668#0 590581668#2 1049842802#0 1049842803 1049842804 589539534#0 1049287312#0 1049287312#2 126303354#0 126303354#2 345709542#0 1048676964#0 298848145#0 130285121#0 508158271 508158272#0 50260020#0 50260020#2 50260020#4 50260020#6 -297382770#5 589539519#0 6057812#0"/>
    </vehicle>
	<vehicle id="8" depart="0.00">
        <route edges="47916245#0 120478529#0 120478529#1 1049253134 45839048#0 50511237#0 297296770#0 6056532#0 6057581#0 6057581#2 6057581#3 6057581#4 6057581#5 6057581#6 920893151#0 420781368#0 435424521#0 308739814#0 435424522#0 435424522#2 435424522#4 48018661#0 130772931#1 575569268 130772928#0 121863780#0 121863780#1 988487224#0 48018630 988487225#0 130889704#0 130889704#1 837279711#0 837279711#2 837279711#4 1051205229#0 1051205229#1 130889702#0 130889702#3 130889702#4 1052908775#0 130889705#0 130889705#2 697824964#0 454815093#0 696806633#0 696806633#2 590605528#0 590605528#2 590605528#3 466359339#0 466359339#1 503185211 -203119343"/>
    </vehicle>
	<vehicle id="9" depart="0.00">
        <route edges="590581593#4 -590581593#5 297296751#0 202992522#0 202992522#2 -130802376#2 -397321701#2 397329577#0 6054886#0 397329580#0 397329578#0"/>
    </vehicle>
	<vehicle id="10" depart="0.00">
        <route edges="1049226223#0 1049226223#1 466359339#0 466359339#1 503185206 583698431#0 583698431#1 589905639 509325916 323742888 535462247#0 535462247#1 466349886#3 -130788158#1 -469165494"/>
    </vehicle>
	<vehicle id="11" depart="0.00">
        <route edges="589533504#0 509326127#0 50524889#0 589533518#2 589533518#3 589533518#4 589533518#5 50797098#0 50797098#3 50797098#6 50797098#8 130889756#7 130889757#0 698748857#0 589539536#0 589539536#2 589539536#3 589539536#4 590581668#0 590581668#2 1049842802#0 1049842803 1049842804 589539534#0 1049287312#0 1049287312#2 126303354#0 126303354#2 345709542#0 1048676964#0 298848145#0 130285121#0 508158271 508158272#0 130889749#0 130889749#2 397316524#0 -397316522 347003330#4 589533563#0 589539518#0 589539518#2 297380210#0 297380210#2 589539537#0 397327934#0"/>
    </vehicle>
	<vehicle id="12" depart="0.00">
        <route edges="6063420#0 155011689#0 -297296749#2 297296770#0 6056532#0 6057581#0 6057581#2 6057581#3 6057581#4 6057581#5 6057581#6 920893151#0 420781368#0 435424521#0 308739814#0 435424522#0 435424522#2 435424522#4 48018661#0 130772931#1 575569268 130772928#0 121863780#0 121863780#1 988487224#0 48018630 988487225#0 130889704#0 130889704#1 837279711#0 837279711#2 837279711#4 1051205229#0 1051205229#1 130889702#0 130889702#3 130889702#4 1052908775#0 130889705#0 130889705#2 697824964#0 454815093#0 696806633#0 696806633#2 935806772#0 935806772#2 1054633206#0 237743944#0 237743944#2 1049235346#0 130889700#0 468434114#0 468434113#0 468434113#1 468434113#2 50524890#5 50524890#8"/>
    </vehicle>
	<vehicle id="13" depart="0.00">
        <route edges="837279711#0 -468433798#1 -468433799#1 -468433799#0 -468433800 468469927#0 468469927#2 460536376#0 468469923#0 468469931#0 -126303361#4 -126303361#1 -421077027 -723610179 -468433795#1 -203119342#1 -397327121#1 -468433796 -397327124#1 298848145#0 130285121#0 508158271 508158272#0 130889749#0 130889749#2 397316524#0 -397316522 -298814317#2 -6056371#1 -397318415#1 397318415#0"/>
    </vehicle>
	<vehicle id="14" depart="0.00">
        <route edges="469165492#2 1049287312#0 1049287312#2 126303354#0 126303354#2 345709542#0 1048676964#0 298848145#0 1047793071 298814315#0 508158270#0 421268132#0 439875858#1 439875858#4 439875858#6 439875858#8 434444693#0"/>
    </vehicle>
	<vehicle id="15" depart="0.00">
        <route edges="-6055383#2 130889755#0 130889756#0 130889756#3 130889756#5 130889756#7 130889757#0 698748857#0"/>
    </vehicle>
	<vehicle id="16" depart="0.00">
        <route edges="1049230589 1049226223#0 1049226223#1 466359339#0 466359339#1 503185211 130889761 589533582 469157092 468434120#0 345633935#0 50799230#0 50799230#2 50799230#4"/>
    </vehicle>
	<vehicle id="17" depart="0.00">
        <route edges="697824964#0 454815093#0 696806633#0 696806633#2 935806772#0 935806772#2 1054633206#0 237743944#0 237743944#2 1049235346#0 130908291#0 466359340#0 466359340#1"/>
    </vehicle>
	<vehicle id="18" depart="0.00">
        <route edges="-421290235#2 397316204#0 347003327#0 397327124#0 468433796 397327121#0 347003229#0 347003229#2 589551073#0 1051018092#0 345633934 1051018093#0 589539535#0 589533502#0 468434122#0 468434122#2 695842776#0 695842776#1 520537746 583705854 535520845#0 535520845#1"/>
    </vehicle>
	<vehicle id="19" depart="0.00">
        <route edges="468450580#0 509645504#1 509645504#2 297444228#0 297759292#0 297759292#1 409546597 130285135#0 397319284#0 397319281#0 421734517#0 298814317#0 -347003330#3 347003328#0 -397303092#2 -397303090#1 -175873836#2 130802372#0 130802372#3 589551073#0 1051018092#0 345633934 1051018093#0 589539535#0 589533502#0 469165486#0 469165487 469165488#0 -469165489#1 -469165490#1 469154540#0 26707840#0 -26707840#1 -469154540#1"/>
    </vehicle>
	<vehicle id="20" depart="0.00">
        <route edges="-24238018#1 24238018#0 24238018#2 397319281#0 421734517#0 298814317#0 397316523#0 -397316524#1 -130889749#2 -130889749#1 130927087#0 468433793#0 354079210 468433792#0 347003228#0 347003229#0"/>
    </vehicle>
	<vehicle id="21" depart="0.00">
        <route edges="-131052512#1 -397327937#1 -397327936#1 -297294792#2 131052297#0 131052297#3 131052297#6 409551583 45838768#0 589551092#0 589551092#1 397321705#0 6058193#0"/>
    </vehicle>
	<vehicle id="22" depart="0.00">
        <route edges="321444902#3 468433793#0 354079210 468433792#0 347003228#0 347003229#0 347003229#2 589551073#0 1051018092#0 345633934 1051018093#0 589539535#0 589533502#0 126303366#0 126303365 323742930#0 323742930#1"/>
    </vehicle>
	<vehicle id="23" depart="0.00">
        <route edges="130927087#0 468433793#0 354079210 468433792#0 347003228#0 347003229#0 347003229#2 589551073#0 468433806#0 468433805"/>
    </vehicle>
	<vehicle id="24" depart="0.00">
        <route edges="6057544#2 6057544#3 130908059#0 397329575#0 397329570 397329572#0 297380214#0 297380214#3 -297380210#3 -297380210#1 -589539518#3 -589539518#1 -589533563#2 -347003330#6 -347003330#3 347003328#0 130802371#0 126303362#0 -305368640#1 -998360408#3"/>
    </vehicle>
	<vehicle id="25" depart="0.00">
        <route edges="130802362#1 466359340#0 466359340#1 535462248 421075190#0 421075190#1 421075190#2 421075190#3 543909823#0 985426725#0 985426724 468436769#0 6056069#0 589533583#0 589539536#0 589539536#2 589539536#3 589539536#4 590581668#0 590581668#2 1049842802#0 1049842803 1049842804 589539534#0 1049287312#0 1049287312#2 126303354#0 126303354#2 345709542#0 1048676964#0 298848145#0 130285121#0 508158271 508158272#0 130889749#0 130889749#2 397316524#0 -397316522 347003330#4 589533563#0 589539518#0 589539518#2 297380210#0 297380210#2 589539537#0 397327934#0"/>
    </vehicle>
	<vehicle id="26" depart="0.00">
        <route edges="-983121554#6 983121554#6 983121554#7 983121554#9 469159256#0 469159256#3 469159259 469159258#0 469159258#1 469159258#2 468469919#0 468469927#0 468469927#2 460536376#0 468469923#0 468469931#0 -126303361#4 -126303361#1 -421077027 -723610179 -468433795#1 -203119342#1 -397327121#1 -468433796 -397327124#1 298848145#0 130285121#0 508158271 508158272#0 130889749#0 130889749#2 397316524#0 -397316522 -298814317#2 468433794 397319278#0 298814316 454817812 146537575#0 397319276 509649677 397317304 397317307#0 297444235#0 297444228#0 297759292#0 297759292#1 409546597"/>
    </vehicle>
	<vehicle id="27" depart="0.00">
        <route edges="397303090#0 -397303090#1 421259825#0 74100353#0 508158273 508158270#0 421268132#0 439875857#0 590598870#0 509326776#0 650605162 6062204 988196201#0 29961175#0 155011691#0 50710195#0 50710195#2 297296762#0 131052515 155011689#0"/>
    </vehicle>
	<vehicle id="28" depart="0.00">
        <route edges="468469900#4 468469897#0 468469894#0 468469887 296355738#0 296355738#1 -468469890#3 -468469890#1 155011691#0 6056532#0 45838762#1 971624710 6062876#0 509325421 468450542 130285122#0 126303355#0 347003228#0 347003229#0 347003229#2 589551073#0 1051018092#0 345633934 1051018093#0 589539535#0 589533502#0 468434122#0 468434122#2 695842775 469157093 469157092 468434120#0 345633936#0"/>
    </vehicle>
	<vehicle id="29" depart="0.00">
        <route edges="-333922462#1 333922462#0 648026207#0 321444900 321444898 321444899#0 130788192#0 130788195 308739814#0 435424522#0 435424522#2 435424522#4 48018661#0 130772931#1 575569268 130772928#0 121863780#0 121863780#1 988487224#0 48018630 988487225#0"/>
    </vehicle>
	<vehicle id="30" depart="0.00">
        <route edges="130772929#0 468469915#0 48018646#0 48018646#2 1052604510#0 -435424522#5 -435424522#3 -435424522#1 -308739814#1 -435424521#1 -420781368#1 -920893151#1 -6057581#6 -6057581#5 -6057581#4 -6057581#3 -6057581#2 -6057581#1 45838762#1 971624710 29961183#0 29961183#2 29961183#4 397321704#0 397321703#0 131076097#0 131076097#1 589539537#0 120478696#0 409551583 397324964#0 397324962 146537578#0 297295058#0 146537585#0"/>
    </vehicle>
	<vehicle id="31" depart="0.00">
        <route edges="130908289#6 130908289#7 50797098#3 50797098#6 50797098#8 130889756#7 130889757#0 698748857#0 589539536#0 589539536#2 589539536#3 589539536#4 590581668#0 590581668#2 1049842802#0 1049842803 1049842804 589539534#0 1049287312#0 1049287312#2 126303354#0 126303354#2 345709542#0 1048676964#0 298848145#0 130285121#0 508158271 508158272#0 130889749#0 130889749#2 397316524#0 -397316522 347003330#4 589533563#0 589539518#0 589539518#2 297380210#0 297380210#2 589539537#0 397327934#0 397327932#0 397327939#0 397327938 397327933 397327935#0 397327936#0 397327937#0 -6059107#6 6059107#4"/>
    </vehicle>
	<vehicle id="33" depart="0.00">
        <route edges="130908289#11 921887474#0 496467785#0 985426724 468436769#0 6056069#0 589533583#0 589539536#0 589539536#2 589539536#3 589539536#4 590581668#0 590581668#2 1049842802#0 1049842803 1049842804 589539534#0 1049287312#0 1049287312#2 126303354#0 126303354#2 345709542#0 1048676964#0 298848145#0 130285121#0 508158271 508158272#0 130889749#0 130889749#2 397316524#0 -397316522 -347003330#3"/>
    </vehicle>
	<vehicle id="34" depart="0.00">
        <route edges="6054255#2 6054255#3 6054255#6 6054255#7 -297294784#2 494175930#0 297368443#0 146537579#0 130285135#0 397319284#0 397319281#0 421734517#0 298814317#0 -347003330#3 347003328#0 -397303092#2 -397303090#1 -175873836#2 130802372#0 130802372#3 589551073#0 468433806#0 468433805 438960035#0 -438960035#1 -468433805 -468433806#1"/>
    </vehicle>
	<vehicle id="35" depart="0.00">
        <route edges="397315035#3 24238018#0 24238018#2 397319281#0 436271294#0 409541717 50799606#0 397319279#0 397319282#0 397319286#0 -126303362#1 126303362#0"/>
    </vehicle>
	<vehicle id="36" depart="0.00">
        <route edges="120478418#0 423615732#0 998360408#0 998360408#1 397315033#0 -126303362#1 -130802371#2 -397303092#2 -397303090#1 -175873836#2 130802372#0 130802372#3 589551073#0 1051018092#0 345633934 1051018093#0 589539535#0 589533502#0 469165486#0 469165487 469165488#0 -469165489#1 -469165490#1 469154540#0 26707840#0 698748856#0 468436770 130285136#0"/>
    </vehicle>
	<vehicle id="37" depart="0.00">
        <route edges="-476103813#1 476103813#0 421077027 -421077027 -723610179 -468433795#1 -203119342#1 -397327121#1 -468433796 -397327124#1 -347003327#2 421258870#0 -175873836#2"/>
    </vehicle>
	<vehicle id="38" depart="0.00">
        <route edges="353283534#1 323742931 126303364 323742932 -126303366#1 469165486#0 469165487 469165488#0 590581668#0 590581668#2 1049842802#0 1049842803 1049842804 589539534#0 1049287312#0 1049287312#2 126303354#0 126303354#2 345709542#0 1048676964#0 298848145#0 130285121#0 508158271 508158272#0 130889749#0 130889749#2 397316524#0 -397316522 -298814317#2 468433794 397319278#0 298814316 454817812 146537575#0 397319276 509649677 397317304 397317307#0 297444235#0 -509645504#3 -509645504#1 509645504#1"/>
    </vehicle>
	<vehicle id="39" depart="0.00">
        <route edges="468433791#0 347003227 756406654#0 -468433792#1 -354079210 -468433793#1 -130927087#2 50260020#0 -50260020#1"/>
    </vehicle>
	<vehicle id="40" depart="0.00">
        <route edges="469165485#0 442066186#0 353283534#0 353283534#1 323742931 126303364 323742932 -126303366#1 469165486#0 469165487 469165488#0 590581668#0 590581668#2 1049842802#0 1049842803 1049842804 589539534#0 1049287312#0 1049287312#2 126303354#0 126303354#2 345709542#0 1048676964#0 298848145#0 130285121#0 508158271 508158272#0 130889749#0 130889749#2 397316524#0 -397316522 347003330#4 589533563#0 589539518#0 589539518#2 297380210#0 297380210#2 -297380214#6 -26572919#5"/>
    </vehicle>
	<vehicle id="41" depart="0.00">
        <route edges="131052297#3 26572919#0 26572919#3 297380214#3 -297380210#3 -297380210#1 -589539518#3 -589539518#1 -589533563#2 -347003330#6 397316523#0 -397316524#1 -130889749#2 -130889749#1 130927087#0 468433793#0 354079210 468433792#0 -756406654#1 -347003227 -468433791#1 -521200399 -347003226 535546521#0"/>
    </vehicle>
	<vehicle id="42" depart="0.00">
        <route edges="6057581#6 -6057581#6 -6057581#5 -6057581#4 -6057581#3 -6057581#2 -6057581#1 954271698#0 988196201#0 6057595#0 -202992519#2 -468441158#1 -468441885#1 -468441884 -120478695#4 -120478695#3 -514191883#2 -514191882#1 -296365351#6 -296365351#5 -296365351#4 296365351#3"/>
    </vehicle>
	<vehicle id="43" depart="0.00">
        <route edges="583705856#0 583705856#1 583705856#2 503185211 50429924 583698432 520537744 520537746 583705854 535520845#0 535520845#1 535520845#2 352412093#0 -352411913#1 -354202945#1 476103809#0 298832254#0 298832261#0 298832240"/>
    </vehicle>
	<vehicle id="44" depart="0.00">
        <route edges="347003227 756406654#0 -468433792#1 -354079210 -468433793#1 -130927087#2 130889749#0 130889749#2 397316524#0 -397316522 347003330#4 589533563#0 589539518#0 589539518#2 297380210#0 297380210#2 589539537#0 397327934#0 397327932#0 397327939#0 397327938 397327933 397327935#0 397327936#0 397327937#0"/>
    </vehicle>
	<vehicle id="45" depart="0.00">
        <route edges="987879162#0 347003327#0 397327124#0 468433796 397327121#0 347003229#0 347003229#2 589551073#0 1051018092#0 345633934 1051018093#0 589539535#0 589533502#0 469165486#0 469165487 469165488#0 -469165489#1 -469165490#1 -537114618#10 -537114618#8 -537114618#5 -537114618#4 -537114618#2 6062881#0 985067151 130285133#0-AddedOnRampEdge 130285133#0 6056363#0 6056363#2 6056363#3 203119341#0 696806636#0 50428539#0 50428539#2 50428539#3 50428539#5"/>
    </vehicle>
	<vehicle id="46" depart="0.00">
        <route edges="297380210#0 297380210#2 -297380214#6 -297380214#2 397321698#0 397321701#0 130802376#0 589551086#0 29961175#0 155011691#0 421037430#0 130788227#0 130788227#2 494988146#0"/>
    </vehicle>
	<vehicle id="47" depart="0.00">
        <route edges="466359339#0 466359339#1 503185211 50429924 583698432 520537744 520537746 583705854 535520845#0 535520845#1 323742932 -126303366#1 469165486#0 469165487 469165488#0 590581668#0 590581668#2 1049842802#0 1049842803 1049842804 589539534#0 1049287312#0 1049287312#2 126303354#0 126303354#2 345709542#0 1048676964#0 298848145#0 130285121#0"/>
    </vehicle>
	<vehicle id="48" depart="0.00">
        <route edges="509325914 421076402 352412106 521221938 521198981 203119343 -352412100 -521198982 521198982"/>
    </vehicle>
	<vehicle id="50" depart="0.00">
        <route edges="-130788195 -130788192#2 -434444693#2 -509646034#1 -352412073 -47920785#1 -352412039#1 -298815729#1 -476103813#1 -352412083 -126303356#1 -298832261#2 298832261#0"/>
    </vehicle>
	<vehicle id="51" depart="0.00">
        <route edges="45838766#0 45838766#1 297294789#0 494175930#0 297368443#0 146537579#0 130285135#0 -333922782#1 -333922765#2 -347003329#2 -333922526#3 -333922526#1 333922462#0 648026207#0 321444900 321444898 321444899#0 130788192#0 130788195 308739814#0 435424522#0 435424522#2 435424522#4 48018661#0 130772931#1 575569268 130772928#0 121863780#0 121863780#1"/>
    </vehicle>
	<vehicle id="52" depart="0.00">
        <route edges="-468433806#1 1051018092#0 345633934 1051018093#0 589539535#0 589533502#0 468434122#0 468434122#2 695842775 469157093"/>
    </vehicle>
	<vehicle id="53" depart="0.00">
        <route edges="202992522#0 202992522#2 589551086#0 29961175#0 155011691#0 6056532#0 6057581#0 6057581#2 6057581#3 6057581#4 6057581#5 -6057581#5"/>
    </vehicle>
	<vehicle id="54" depart="0.00">
        <route edges="-202992522#1 202992519#0 -6057595#2 29961175#0 155011691#0 6056532#0 6057581#0 6057581#2 6057581#3 6057581#4 6057581#5 6057581#6 920893151#0 420781368#0 435424521#0 308739814#0 435424522#0 435424522#2 435424522#4 48018661#0 130772931#1 575569268 130772928#0 121863780#0 121863780#1 988487224#0 48018630 988487225#0 130889704#0 130889704#1 837279711#0 837279711#2 837279711#4 1051205229#0 1051205229#1 130889702#0 130889702#3 130889702#4 1052908775#0 130889705#0 130889705#2 697824964#0 454815093#0 696806633#0 696806633#2 935806772#0 935806772#2 1054633206#0 86472738#0"/>
    </vehicle>
	<vehicle id="55" depart="0.00">
        <route edges="130285133#0-AddedOnRampEdge 130285133#0 130889756#3 130889756#5 130889756#7 130889757#0 698748857#0 589539536#0 589539536#2 589539536#3 589539536#4 590581668#0 590581668#2 1049842802#0 1049842803 1049842804 589539534#0 1049287312#0 1049287312#2 126303354#0 126303354#2 345709542#0 1048676964#0 298848145#0 130285121#0 508158271 508158272#0 130889749#0 130889749#2 397316524#0 -397316522 347003330#4 589533563#0 589539518#0 589539518#2 297380210#0 297380210#2 589539537#0 -397318412#1"/>
    </vehicle>
	<vehicle id="56" depart="0.00">
        <route edges="-509645504#3 509645504#2 297444228#0 297759292#0 297759292#1 409546597 130285135#0 397319284#0 397319281#0 436271294#0 409541717 50799606#0 397319279#0 397319282#0 397319286#0 -305368640#1 -998360408#3 -998360408#0 -397304550 -120478418#2 6055551#0 923370378#0 923370378#1 6054252#0 6054252#2 130889684#0 509326252#0 296971737#0 -130907982#1 -6053702#4"/>
    </vehicle>
	<vehicle id="57" depart="0.00">
        <route edges="589539520#0 -333922526#3 -333922526#1 333922462#0 648026207#0 321444900 509326776#0 650605162 6062204 988196201#0 29961175#0 468469890#0 468469890#2 -296355738#2 -296355738#0 -468469887 -468469894#1"/>
    </vehicle>
	<vehicle id="58" depart="0.00">
        <route edges="-6061944#3 126303354#0 126303354#2 345709542#0 1048676964#0 298848145#0 130285121#0 508158271 508158272#0 130889749#0 130889749#2 397316524#0 -397316522 347003330#4 -347003330#6"/>
    </vehicle>
	<vehicle id="59" depart="0.00">
        <route edges="297296770#0 421037430#0 130788227#0 130788227#2 -50511365#7 -50511365#4 -50511365#3"/>
    </vehicle>
	<vehicle id="60" depart="0.00">
        <route edges="126303361#3 126303361#5 130772954 696198846#1 48018648#0 468469915#0 468469915#1 130772931#1 575569268 130772928#0 121863780#0 121863780#1 988487224#0 988487222 988487223 409551582 50009629#0"/>
    </vehicle>
	<vehicle id="61" depart="0.00">
        <route edges="6058797 520537749-AddedOnRampEdge 520537749 353283534#0 353283534#1 323742931 126303364 323742932 -126303366#1 469165486#0 469165487 469165488#0 -469165489#1 -469165490#1 -537114618#10 537114618#9"/>
    </vehicle>
	<vehicle id="62" depart="0.00">
        <route edges="-202992520#2 -6057595#2 29961175#0 155011691#0 6056532#0 6057581#0 6057581#2 6057581#3 6057581#4 6057581#5 6057581#6 920893151#0 -854143897#2 130802361#0"/>
    </vehicle>
	<vehicle id="63" depart="0.00">
        <route edges="589533502#0 469165486#0 469165487 469165488#0 590581668#0 590581668#2 1049842802#0 1049842803 1049842804 589539534#0 1049287312#0 1049287312#2 126303354#0 126303354#2 345709542#0 1048676964#0 298848145#0 130285121#0 508158271 508158272#0 130889749#0 130889749#2 397316524#0 -397316522 347003330#4 589533563#0 589539518#0 589539518#2 297380210#0 297380210#2 -297380214#6 -297380214#2 -397329572#1 -397329570 -397329575#1 -130908059#2 -131052512#5 -131052512#3 -131052512#2"/>
    </vehicle>
	<vehicle id="64" depart="0.00">
        <route edges="-50422161 998338690#6 47916249#0 45838762#1 971624710 6062876#0 252140542#0 252140542#3 589539519#0 589539519#2 589539517#0 297444238#0 542269314#0 297456132#0"/>
    </vehicle>
	<vehicle id="65" depart="0.00">
        <route edges="130889705#2 697824964#0 454815093#0 696806633#0 696806633#2 590605528#0 590605528#2 590605528#3 466359339#0 466359339#1 503185211 50429924 583698432 50429918"/>
    </vehicle>
	<vehicle id="66" depart="0.00">
        <route edges="48018651#0 121863780#0 121863780#1 988487224#0 48018630 988487225#0 130889704#0 130889704#1 837279711#0 -468433798#1 -468433799#1 -468433799#0 -468433800 -468433803 -468433804 -298832254#2 -476103809#1 -520532363 -6060903#4 -6060903#2 -6060903#1 589539535#0 589533502#0 469165486#0 469165487 469165488#0 -469165489#1 -469165490#1 -537114618#10 -537114618#8 -537114618#5 -537114618#4 -537114618#2 6062881#0 985067151 130285133#0-AddedOnRampEdge 130285133#0 6056363#0 6056363#2 6056363#3 130889760#0 131463018#0 509326252#0 296971737#0"/>
    </vehicle>
	<vehicle id="67" depart="0.00">
        <route edges="-589551092#1 -589551092#0 146537587#0 397324962 297368443#0 146537579#0 130285135#0 397319284#0 397319281#0 421734517#0 298814317#0 397316523#0 -397316524#1 -130889749#2 -130889749#1 130927087#0 468433793#0 354079210 468433792#0 -756406654#1 -347003227 -468433791#1 -521200399 -347003226 -535546520#4"/>
    </vehicle>
	<vehicle id="68" depart="0.00">
        <route edges="-6057581#4 -6057581#3 -6057581#2 -6057581#1 -6056532#2 50710195#0 50710195#2 297296749#0 -297296749#2"/>
    </vehicle>
	<vehicle id="69" depart="0.00">
        <route edges="468450542 130285122#0 126303355#0 -468433792#1 -354079210 -468433793#1 -130927087#2 130889749#0 130889749#2 397316524#0 -397316522 -298814317#2 468433794 397319278#0 298814316 454817812 -24238018#5 -24238018#1 -45838764#1"/>
    </vehicle>
	<vehicle id="70" depart="0.00">
        <route edges="6052882#0 435424522#0 435424522#2 435424522#4 48018661#0 130772931#1 575569268 130772928#0 121863780#0 121863780#1 988487224#0 48018630 988487225#0 130889704#0 130889704#1 837279711#0 837279711#2 837279711#4 1051205229#0 1051205229#1 130889702#0 130889702#3 130889702#4 1052908775#0 130889705#0 130889705#2 697824964#0 454815093#0 696806633#0 696806633#2 935806772#0 935806772#2 1054633206#0 237743944#0 237743944#2 1049235346#0 130908291#0 466359340#0 466359340#1 535462247#0 535462247#1 466349886#3"/>
    </vehicle>
	<vehicle id="71" depart="0.00">
        <route edges="-296355738#0 -468469887 -468469894#1 468469894#0 468469887 296355738#0 296355738#1 -468469890#3 -468469890#1 155011691#0 6056532#0 45838762#1 6062201#0 -130788155#2 -434444693#2 -509646034#1 -352412073 -47920785#1 -352412039#1 50429905 924793627#0-AddedOnRampEdge 924793627#0 108060074#0 -298832240 298832240"/>
    </vehicle>
	<vehicle id="72" depart="0.00">
        <route edges="423602319#0 -423602319#1 -423602679 6053702#0 6053702#2 6053702#3 509326344#0 6054254#0 50431292#0 6057417#0 6056366#0 6056366#3 130889756#0 130889756#3 130889756#5 130889756#7 130889757#0 698748857#0 589539536#0 589539536#2 589539536#3 589539536#4 590581668#0 590581668#2 1049842802#0 1049842803 1049842804 589539534#0 1049287312#0 1049287312#2 126303354#0 126303354#2 345709542#0 1048676964#0 298848145#0 1047793071 298814315#0 508158270#0 421268132#0 439875857#0 590598870#0 509326776#0 252140542#0 -202992524#7 -202992524#4 -202992524#2 -202992522#3"/>
    </vehicle>
	<vehicle id="73" depart="0.00">
        <route edges="298814315#0 508158270#0 -130927087#2 130889749#0 130889749#2 397316524#0 -397316522 347003330#4 589533563#0 589539518#0 589539518#2 297380210#0 297380210#2 589539537#0 120478696#0 -131052297#9 -131052297#5 -131052297#2"/>
    </vehicle>
	<vehicle id="74" depart="0.00">
        <route edges="50524889#3 50524889#7 50524889#10 -50799230#8 -50799230#6 -50799230#5 -50799230#2 -50799230#1 6057204#0 985426725#0 985426724 468436769#0 6056069#0 589533583#0 589539536#0 589539536#2 589539536#3 589539536#4 590581668#0 590581668#2 1049842802#0 1049842803 1049842804 589539534#0 1049287312#0 1049287312#2 126303354#0 126303354#2 345709542#0 1048676964#0 298848145#0 130285121#0 508158271 508158272#0 50260020#0 50260020#2 50260020#4 50260020#6 -297382770#5 -297382770#2 297382769#0 297382769#4 130802359#0 130802359#2 470165122 -468441884 -120478695#4 -120478695#3 -120478695#2"/>
    </vehicle>
	<vehicle id="75" depart="0.00">
        <route edges="45838762#1 6062201#0 -130788155#2 130788192#0 130788195 308739814#0 435424522#0 435424522#2 435424522#4 48018661#0 130772931#1 575569268 130772928#0 121863780#0 121863780#1 988487224#0 48018630 988487225#0 130889704#0 130889704#1 837279711#0 837279711#2 837279711#4 1051205229#0 1051205229#1 130889702#0 130889702#3 130889702#4 1052908775#0 983121554#4"/>
    </vehicle>
	<vehicle id="76" depart="0.00">
        <route edges="583705855 469165475 130802360#0 130802360#1 469159255 353283534#0 353283534#1 323742931 126303364 323742932 -126303366#1 469165486#0 469165487 469165488#0 -469165489#1 -469165490#1 -537114618#10 -537114618#8 -537114618#5 -537114618#4 -537114618#2"/>
    </vehicle>
	<vehicle id="77" depart="0.00">
        <route edges="353283534#0 353283534#1 323742931 126303364 535520845#2 -421061860"/>
    </vehicle>
	<vehicle id="78" depart="0.00">
        <route edges="126303356#0 -126303356#1 -298832261#2 -298832254#2 -476103809#1 -520532363 -6060903#4 -6060903#2 -6060903#1 589539535#0 589533502#0 468434122#0 468434122#2 695842776#0 695842776#1 520537745 466349883 583705856#0 583705856#1 50429925 352412100 130889761 589533582"/>
    </vehicle>
	<vehicle id="79" depart="0.00">
        <route edges="535462247#0 535462247#1 50018069 321477125#3 321477125#4 321477125#5 321477125#6 520537743#0 520537743#1 354436361#0 354436361#1 354436361#2 583698434 583698432 520537744 520537746 583705854 535520845#0 535520845#1 535520845#2 352412093#0 -352411913#1 -354202945#1 476103809#0 298832254#0 298832261#0 126303356#0 -126303356#1"/>
    </vehicle>
</routes>
