<?xml version="1.0" encoding="UTF-8"?>
<!-- generated on 2022-10-26 03:16:28.488700 by $Id$ UNKNOWN
  options: -n /Users/nafiulhassan/veins-5.1/examples/veins/input/washingtondc/30/washingtondc.net.xml -s 29 -e 30 -o /Users/nafiulhassan/veins-5.1/examples/veins/input/washingtondc/seed-29/30/washingtondc.trips.xml
-->
<routes xmlns:xsi="http://www.w3.org/2001/XMLSchema-instance" xsi:noNamespaceSchemaLocation="http://sumo.dlr.de/xsd/routes_file.xsd">
    <trip id="0" depart="0.00" from="397316176#0" to="126303355#0"/>
    <trip id="1" depart="1.00" from="583698434" to="-864614823#1"/>
    <trip id="2" depart="2.00" from="323742888" to="125568108#5"/>
    <trip id="3" depart="3.00" from="131052508#3" to="923370378#3"/>
    <trip id="4" depart="4.00" from="-353283601" to="203025090#0"/>
    <trip id="5" depart="5.00" from="-520532363" to="126303364"/>
    <trip id="6" depart="6.00" from="998360408#0" to="1052908775#0"/>
    <trip id="7" depart="7.00" from="435106239#0" to="131052508#2"/>
    <trip id="8" depart="8.00" from="50008439" to="203119343"/>
    <trip id="9" depart="9.00" from="-468433805" to="155011691#0"/>
    <trip id="10" depart="10.00" from="130908292#2" to="509326344#0"/>
    <trip id="11" depart="11.00" from="397319281#0" to="-47916247#2"/>
    <trip id="12" depart="12.00" from="468469904#0" to="-983121553#2"/>
    <trip id="13" depart="13.00" from="323742930#2" to="-514191883#2"/>
    <trip id="14" depart="14.00" from="131052297#3" to="508158271"/>
    <trip id="15" depart="15.00" from="333922526#2" to="50429921"/>
    <trip id="16" depart="16.00" from="50511237#0" to="397329570"/>
    <trip id="17" depart="17.00" from="466359340#1" to="130889758#4"/>
    <trip id="18" depart="18.00" from="436136929#2" to="50797098#3"/>
    <trip id="19" depart="19.00" from="-352411913#1" to="6062881#0"/>
    <trip id="20" depart="20.00" from="130788207#4" to="-421037430#2"/>
    <trip id="21" depart="21.00" from="-436136927#2" to="121863780#1"/>
    <trip id="22" depart="22.00" from="-297380211#3" to="130889758#6"/>
    <trip id="23" depart="23.00" from="131052508#2" to="468433795#0"/>
    <trip id="24" depart="24.00" from="297295058#0" to="6062201#0"/>
    <trip id="25" depart="25.00" from="468434115#0" to="1049287312#2"/>
    <trip id="26" depart="26.00" from="589551073#0" to="469165485#0"/>
    <trip id="27" depart="27.00" from="910190956#0" to="50008440"/>
    <trip id="28" depart="28.00" from="888235719#0" to="-50431293#1"/>
    <trip id="29" depart="29.00" from="-6063421#1" to="923370378#0"/>
</routes>
