<?xml version="1.0" encoding="UTF-8"?>

<!-- generated on 2022-10-26 03:14:45 by Eclipse SUMO duarouter Version 1.10.0
	<routes>

    <input>
        <net-file value="/Users/nafiulhassan/veins-5.1/examples/veins/input/washingtondc/30/washingtondc.net.xml"/>
        <route-files value="/Users/nafiulhassan/veins-5.1/examples/veins/input/washingtondc/seed-3/50/washingtondc.trips.xml"/>
    </input>

    <output>
        <output-file value="/Users/nafiulhassan/veins-5.1/examples/veins/input/washingtondc/seed-3/50/washingtondc.rou.xml"/>
        <alternatives-output value="/Users/nafiulhassan/veins-5.1/examples/veins/input/washingtondc/seed-3/50/washingtondc.rou.alt.xml"/>
    </output>

    <report>
        <ignore-errors value="true"/>
    </report>

</configuration>
-->

	<routes>
	<vehicle id="0" depart="0.00">
        <route edges="-575569267#14 -575569267#12 -125568108#4 -125568108#2 -125568108#1 -130788190 -130788195 -130788192#2 -321444899#2 -321444898 321444902#0 321444902#3 468433793#0 354079210"/>
    </vehicle>
	<vehicle id="1" depart="0.00">
        <route edges="130802359#2 -130802359#2 -130802359#1 -297382769#6 -297382769#3 297382770#0 297382770#3 -50260020#7 -50260020#5 -50260020#3 -50260020#1 130927087#0 468433793#0 354079210 468433792#0 347003228#0 347003229#0 347003229#2 589551073#0 1051018092#0 345633934 1051018093#0 589539535#0 589533502#0 468434122#0 468434122#2 695842775 469157093 469157092 1048252755#0 589533511 520537739 -421076402 421076402"/>
    </vehicle>
	<vehicle id="2" depart="0.00">
        <route edges="438964977 130908283#0 -130908283#0 -352411913#1 -354202945#1 476103809#0 298832254#0 298832261#0 126303356#0 476103811 476103813#0 298815729#0 352412039#0 47920785#0 352412073 509646034#0 434444693#0 130788155#0 131520206#0 650605162 6062204 988196201#0 6057595#0 -202992519#2 -297296751#2"/>
    </vehicle>
	<vehicle id="3" depart="0.00">
        <route edges="-130772954 -126303361#7 -126303361#4 -126303361#1 -421077027 -723610179 -468433795#1 -203119342#1 347003229#0 347003229#2 589551073#0 1051018092#0 345633934 1051018093#0 589539535#0 589533502#0 469165486#0 469165487 469165488#0 -469165489#1 -469165490#1 -537114618#10 543712321#0"/>
    </vehicle>
	<vehicle id="4" depart="0.00">
        <route edges="-6055551#1 6055551#0 923370378#0 923370378#1 923370378#3 923370378#5 923370378#7 923370378#8 923370378#10 468434115#0 537114618#0 537114618#2 537114618#3 -537114618#4"/>
    </vehicle>
	<vehicle id="5" depart="0.00">
        <route edges="988487225#0 130889704#0 130889704#1 837279711#0 -468433798#1 -468433799#1 -468433799#0 -468433800 468469927#0 468469927#2 460536376#0 468469923#0 468469931#0 468469935#0 468469935#2 468469943#0 468469939#0 468469946#0 200019461#0 435424520#0 -420781368#1 -920893151#1 -6057581#6 -6057581#5 -6057581#4 -6057581#3 -6057581#2 -6057581#1 954271698#0 988196201#0 6057595#0 -202992519#2 -468441158#1 -468441885#1 -468441884 -120478695#4 -120478695#3 -120478695#2 -589905511#3 -297294792#2 -297294791#2 297294791#0"/>
    </vehicle>
	<vehicle id="6" depart="0.00">
        <route edges="575569267#15 297400412#0 998338690#6 47916249#0 45838762#1 971624710 29961183#0 29961183#2 29961183#4 397321704#0 397321703#0 131076097#0 131076097#1 589539537#0 120478696#0 409551583 397324964#0 397324962 297368443#0"/>
    </vehicle>
	<vehicle id="7" depart="0.00">
        <route edges="466349886#0 321477125#3 321477125#4 321477125#5 321477125#6 520537743#0 520537743#1 354436361#0 354436361#1 354436361#2 583698434 583698432 520537744 520537746 583705854 535520845#0 535520845#1 535520845#2 352412093#0 -352411913#1 -354202945#1 -121980352 -436136927#8 -436136927#6 -436136927#5"/>
    </vehicle>
	<vehicle id="8" depart="0.00">
        <route edges="45838766#0 45838766#1 297294789#0 494175930#0 297368443#0 146537579#0 130285135#0 -333922782#1 -333922765#2 -347003329#2 -333922526#3 -333922526#1 -297382770#5 589539519#0 589539519#2"/>
    </vehicle>
	<vehicle id="9" depart="0.00">
        <route edges="347003226 521200399 468433791#0 347003227 756406654#0 347003228#0 347003229#0 347003229#2 589551073#0 1051018092#0 345633934 1051018093#0 589539535#0 589533502#0 468434122#0 468434122#2 695842776#0 695842776#1 520537745 466349883 583705856#0 583705856#1 583705856#2 503185211"/>
    </vehicle>
	<vehicle id="10" depart="0.00">
        <route edges="468469900#0 468469900#1 468469900#4 468469897#0 468469894#0 468469887 296355738#0 296355738#1 -589551087#2 -202992519#2 -468441158#1 -468441885#1 -468441884 -120478695#4 -120478695#3 -120478695#2 -589905511#3 -297294792#2"/>
    </vehicle>
	<vehicle id="12" depart="0.00">
        <route edges="-998360408#0 -397304550 423615732#0 998360408#0 998360408#1 397315033#0 298829677#0 468450576#0 397319283 421734517#0 -6056371#1 -397318415#1 -397318416#2 397318411#0 397318410#0 397318414#0 397318412#0 120478696#0 -131052297#9"/>
    </vehicle>
	<vehicle id="13" depart="0.00">
        <route edges="589539519#2 -131076063#2 -397329578#2 -397329580#1 -6054886#1 -397329577#1 397321701#0 130802376#0 -202992522#3 -202992522#1 -297296751#2 297296751#0"/>
    </vehicle>
	<vehicle id="14" depart="0.00">
        <route edges="48018653 130772956#0 -130772954 -126303361#7 -126303361#4 -126303361#1 -421077027 -723610179 -468433795#1 -203119342#1 -397327121#1 -468433796 -397327124#1 298848145#0 130285121#0 508158271 508158272#0 130889749#0 130889749#2 397316524#0 -397316522 -298814317#2 468433794 397319278#0 298814316 454817812 146537575#0 397319276 297456132#0 45838768#0 589551092#0"/>
    </vehicle>
	<vehicle id="15" depart="0.00">
        <route edges="479469615#0 535546520#0 -535546520#1 468469939#0 468469946#0 200019461#0 435424520#0 -420781368#1 -920893151#1 -6057581#6 -6057581#5 -6057581#4 6057581#4"/>
    </vehicle>
	<vehicle id="16" depart="0.00">
        <route edges="130889761 583698434 583698432 520537744 520537746 583705854 535520845#0 535520845#1 323742932 -126303366#1 469165486#0 469165487 469165488#0 590581668#0 590581668#2 1049842802#0 1049842803 1049842804 589539534#0 1049287312#0 1049287312#2 126303354#0 126303354#2 345709542#0 1048676964#0 298848145#0 130285121#0 508158271 508158272#0 130889749#0 130889749#2 397316524#0 -397316522 -298814317#2 468433794 397319278#0 298814316 454817812 146537575#0 397319276 297456132#0 397324964#0 397324962 146537578#0 297294784#0 513235538#0"/>
    </vehicle>
	<vehicle id="17" depart="0.00">
        <route edges="24222606 1052604510#0 -435424522#5 -435424522#3 -435424522#1 -308739814#1 -435424521#1 -420781368#1 397327118#0 131520206#0 650605162 6062204"/>
    </vehicle>
	<vehicle id="18" depart="0.00">
        <route edges="589905634 466349884 1049230589 1049226223#0 1049226223#1 696737929#0 696737929#1 696737929#2 130802360#0 130802360#1 469159255 353283534#0 353283534#1 323742931 126303364 323742932 -126303366#1 469165486#0 469165487 469165488#0 590581668#0 590581668#2 1049842802#0 1049842803 1049842804 589539534#0 1049287312#0 1049287312#2 126303354#0 126303354#2 345709542#0 1048676964#0 298848145#0 130285121#0 508158271 508158272#0 130889749#0 130889749#2 397316524#0 -397316522 347003330#4 -347003330#6"/>
    </vehicle>
	<vehicle id="19" depart="0.00">
        <route edges="-397355102#2 -6057421#3 -6057421#1 6054254#0 50431292#0 6057417#0 6056366#0 6056366#3 130889756#0 130889756#3 130889756#5 130889756#7 130889757#0 698748857#0 589539536#0 589539536#2 589539536#3 589539536#4 590581668#0 590581668#2 1049842802#0 1049842803 1049842804 589539534#0 1049287312#0 1049287312#2 126303354#0 126303354#2 345709542#0 1048676964#0 298848145#0 130285121#0 508158271 508158272#0 130889749#0 130889749#2 397316524#0 -397316522 -298814317#2 468433794 397319278#0 298814316 454817812 -24238018#5 -24238018#1 -45838764#1 -510723128#2 -510723128#1"/>
    </vehicle>
	<vehicle id="20" depart="0.00">
        <route edges="864614824#0 203119345#0 468469927#0 468469927#2 460536376#0 468469923#0 468469931#0 468469935#0 468469935#2 468469943#0 468469939#0 468469946#0 200019461#0 435424520#0 -420781368#1 -920893151#1 -6057581#6 -6057581#5 -6057581#4 -6057581#3 -6057581#2 -6057581#1 954271698#0 988196201#0 6057595#0 -202992519#2 202992519#0"/>
    </vehicle>
	<vehicle id="21" depart="0.00">
        <route edges="439875857#0 590598870#0 321444898 130285122#0 126303355#0 347003228#0 347003229#0 347003229#2 589551073#0 1051018092#0 345633934 1051018093#0 589539535#0 -130908283#4 -130908283#2 -130908283#1 -130908283#0 -438964977 -466359338#3 -466359338#1 -983121554#11 -983121554#7 -983121554#6 -983121554#5"/>
    </vehicle>
	<vehicle id="22" depart="0.00">
        <route edges="321477125#3 321477125#4 321477125#5 321477125#6 520537743#0 520537743#1 354436361#0 354436361#1 354436361#2 583698434 583698432 520537744 520537746 583705854 535520845#0 535520845#1 535520845#2 352412093#0 -352411913#1 -354202945#1 476103809#0 298832254#0 298832261#0 298832240 864614823#0 864614823#2 298832235#0 298832235#3 298832235#4 48018653 48018648#0 468469915#0 468469915#1 130772931#1 575569268 130772928#0 121863780#0 121863780#1 988487224#0 48018630 988487225#0 130889704#0 130889704#1"/>
    </vehicle>
	<vehicle id="23" depart="0.00">
        <route edges="130285121#0 508158271 508158272#0 130889749#0 130889749#2 397316524#0 -397316522 347003330#4 589533563#0 589539518#0 589539518#2 297380210#0 297380210#2 589539537#0 397327934#0 397327932#0 397327939#0 397327938 397327933 397327935#0 397327936#0 397327937#0"/>
    </vehicle>
	<vehicle id="24" depart="0.00">
        <route edges="397329580#0 397329578#0 131076063#0 589539520#0 -333922526#3 -333922526#1 -50260020#7 -50260020#5 -50260020#3 -50260020#1 130927087#0 468433793#0 354079210 468433792#0 347003228#0 347003229#0 347003229#2 589551073#0 1051018092#0 345633934 1051018093#0 589539535#0 589533502#0 469165486#0 469165487 469165488#0 -469165489#1 -469165490#1 -537114618#10 -537114618#8 -537114618#5 -537114618#4 -537114618#2 -537114618#1 -468434115#1 -923370378#11 -923370378#9 -923370378#7 -923370378#6 -6055383#2 6055383#0"/>
    </vehicle>
	<vehicle id="25" depart="0.00">
        <route edges="468469946#0 200019461#0 435424520#0 -420781368#1 -920893151#1 -6057581#6 -6057581#5 -6057581#4 -6057581#3 -6057581#2 -6057581#1 954271698#0 988196201#0 6057595#0 -202992519#2 -468441158#1 -468441885#1 -468441884 -120478695#4 -120478695#3 -120478695#2 -589905511#3 397327936#0 397327937#0 -6059107#6 -6059107#3 6059107#3"/>
    </vehicle>
	<vehicle id="26" depart="0.00">
        <route edges="589533518#0 589533518#2 589533518#3 589533518#4 589533518#5 50797098#0 50797098#3 50797098#6 50797098#8 130889756#7 130889757#0 698748857#0 589539536#0 589539536#2 589539536#3 589539536#4 590581668#0 590581668#2 1049842802#0 1049842803 1049842804 589539534#0 1049287312#0 1049287312#2 126303354#0 126303354#2 345709542#0 1048676964#0 298848145#0 1047793071 298814315#0 508158270#0 421268132#0 439875857#0 590598870#0 509326776#0 650605162 6062204 988196201#0 6057595#0 202992520#2 202992520#3 202992520#5 202992520#7 202992520#8 987878092 987878094#0"/>
    </vehicle>
	<vehicle id="27" depart="0.00">
        <route edges="468469897#0 468469894#0 468469887 296355738#0 296355738#1 -468469890#3 -468469890#1 155011691#0 6056532#0 45838762#1 971624710 6062876#0 509325421 468450542 130285122#0 126303355#0 -468433792#1 -354079210 -468433793#1"/>
    </vehicle>
	<vehicle id="28" depart="0.00">
        <route edges="589533564#0 589539521#0 70948801#0 70948801#2 70948801#3 439875857#0 590598870#0 321444898 321444899#0 130788192#0 435424520#0 -420781368#1 -854143897#2 854143897#0"/>
    </vehicle>
	<vehicle id="29" depart="0.00">
        <route edges="6055551#0 -6055551#1 120478418#0 423615732#0 998360408#0 998360408#1 397315033#0 298829677#0 468450576#0 397319283 397319278#0 298814316 454817812 397319281#0"/>
    </vehicle>
	<vehicle id="30" depart="0.00">
        <route edges="47920785#0 -47920785#1 -352412039#1 -298815729#1 -723610179 -468433795#1 -203119342#1 347003229#0 347003229#2 589551073#0 1051018092#0 345633934 1051018093#0 589539535#0 589533502#0 468434122#0 468434122#2 695842775 469157093 469157092 468434120#0 345633935#0 50799230#0 50799230#2 50799230#4 -50799230#5"/>
    </vehicle>
	<vehicle id="31" depart="0.00">
        <route edges="543712269#0 543712269#2 537114618#5 537114618#6 537114618#9 469165490#0 469165490#2 590581668#0 590581668#2 1049842802#0 1049842803 1049842804 589539534#0 1049287312#0 1049287312#2 126303354#0 126303354#2 345709542#0 1048676964#0 298848145#0 130285121#0 508158271 508158272#0 130889749#0 130889749#2 397316524#0 -397316522 -298814317#2 468433794 397319278#0 298814316 454817812 146537575#0 397319276 297456132#0 397324964#0 397324962 29961168#0 397321700#0"/>
    </vehicle>
	<vehicle id="32" depart="0.00">
        <route edges="-864614823#1 -298832240 126303356#0 476103811 476103812 49999718#1 -468433795#1 -203119342#1 -397327121#1 -468433796 -397327124#1 298848145#0 130285121#0 508158271 508158272#0 130889749#0 130889749#2 397316524#0 -397316522 347003330#4 589533563#0 589539518#0 589539518#2 297380210#0 297380210#2 589539537#0 397327934#0 397327932#0 397327939#0 397327938 397327933 397327935#0 -297294792#2 -297294791#2"/>
    </vehicle>
	<vehicle id="33" depart="0.00">
        <route edges="589533515#2 589533504#0 509326127#0 50524889#0 50524889#3 50524889#7 50524889#10 -50799230#8 -50799230#6 -50799230#5 -50799230#2 -50799230#1 6057204#0 985426725#0"/>
    </vehicle>
	<vehicle id="34" depart="0.00">
        <route edges="-333922462#1 333922526#0 333922526#2 347003329#0 333922765#0 397317310#0 397319276 509649677 397317304 397317307#0 297444235#0 510723128#1 510723128#2"/>
    </vehicle>
	<vehicle id="35" depart="0.00">
        <route edges="131052297#3 26572919#0 26572919#3 297380214#3 -297380210#3 -297380210#1 -589539518#3 -589539518#1 -589533563#2 -347003330#6 -347003330#3 347003328#0 -397303092#2 -397303090#1 -175873836#2 130802372#0 130802372#3 589551073#0 1051018092#0 345633934 1051018093#0 6060903#0 6060903#2 6060903#3 520532363 -121980352 -436136927#8 -436136927#6 -436136927#5"/>
    </vehicle>
	<vehicle id="36" depart="0.00">
        <route edges="-983121553#1 983121553#1 983121553#2 983121553#3 454815093#0 696806633#0 696806633#2 935806772#0 935806772#2 1054633206#0 237743944#0 237743944#2 1049235346#0 130908291#0 466359340#0 466359340#1 535462248 421075190#0 421075190#1 421075190#2 421075190#3 345633935#0 50799230#0 50799230#2 50799230#4 50799230#6 50799230#7 50524889#15"/>
    </vehicle>
	<vehicle id="37" depart="0.00">
        <route edges="589539536#4 590581668#0 590581668#2 1049842802#0 1049842803 1049842804 589539534#0 1049287312#0 1049287312#2 126303354#0 126303354#2 345709542#0 1048676964#0 298848145#0 1047793071 298814315#0 508158270#0 421268132#0 439875857#0 590598870#0 509326776#0 252140542#0 -202992524#7"/>
    </vehicle>
	<vehicle id="38" depart="0.00">
        <route edges="436136927#3 469159258#0 469159258#1 469159258#2 468469919#0 468469927#0 468469927#2 460536376#0 468469923#0 468469931#0 -126303361#4 -126303361#1 -421077027 -723610179 -468433795#1 -203119342#1 -397327121#1 -468433796 -397327124#1 298848145#0 130285121#0 508158271 508158272#0 130889749#0 130889749#2 397316524#0 -397316522 -298814317#2 468433794 397319278#0 298814316 454817812 146537575#0 397319276 297456132#0 397324964#0 397324962 146537578#0 -297294789#2 -203025089#2 -203025089#1"/>
    </vehicle>
	<vehicle id="39" depart="0.00">
        <route edges="48018651#0 121863780#0 121863780#1 988487224#0 48018630 988487225#0 130889704#0 130889704#1 837279711#0 837279711#2 837279711#4 1051205229#0 1051205229#1 130889702#0 130889702#3 130889702#4 1052908775#0 130889705#0 130889705#2 697824964#0 454815093#0 696806633#0 696806633#2 935806772#0 935806772#2 1054633206#0"/>
    </vehicle>
	<vehicle id="40" depart="0.00">
        <route edges="590581593#2 590581593#4 -202992520#4 -202992520#2 -6057595#2 -988196201#2 -6062204 6062876#0 509325421 468450542 130285122#0 126303355#0 347003228#0 347003229#0 347003229#2 589551073#0 1051018092#0 345633934 1051018093#0 589539535#0 589533502#0 468434122#0 468434122#2 695842775 469157093 469157092 468434120#0 345633935#0 345633935#3 345633935#5 438958617#9 961869114#0"/>
    </vehicle>
	<vehicle id="41" depart="0.00">
        <route edges="321444902#0 439875858#1 439875858#4 439875858#6 439875858#8 434444693#0 130788192#0 130788195 130788190 125568108#0 125568108#2 125568108#3 575569267#11 575569267#13 575569267#15 297400412#0 998338690#6"/>
    </vehicle>
	<vehicle id="42" depart="0.00">
        <route edges="1048676964#0 397327124#0 468433796 397327121#0 347003229#0 347003229#2 131448559#0 397364246#2 298832240 864614823#0 864614823#2 298832235#0 298832235#3 -298832235#3"/>
    </vehicle>
	<vehicle id="43" depart="0.00">
        <route edges="421258870#0 397303090#0 397303092#0 -347003328#2 347003330#0 347003330#4 589533563#0 589539518#0 589539518#2 297380210#0 297380210#2 589539537#0 120478696#0 -131052297#9"/>
    </vehicle>
	<vehicle id="44" depart="0.00">
        <route edges="-479469615#3 479469615#0 535546520#0 535546520#3 347003226 521200399 468433791#0 347003227 756406654#0 347003228#0 347003229#0 347003229#2 589551073#0 1051018092#0 345633934 1051018093#0 589539535#0 589533502#0 469165486#0 469165487 469165488#0 -469165489#1 -469165490#1 -537114618#10 -537114618#8 -537114618#5 -537114618#4 -537114618#2 6062881#0 985067151 130285133#0-AddedOnRampEdge 130285133#0 6056363#0 6056363#2 6056363#3 203119341#0 130908289#3 130908289#5 130908289#6 130908289#7"/>
    </vehicle>
	<vehicle id="45" depart="0.00">
        <route edges="435424521#0 130788190 -130788190 -130788195 -130788192#2 -434444693#2 -509646034#1 -352412073 -47920785#1 -352412039#1 -298815729#1 -476103813#1 -352412083 -126303356#1 -298832261#2 -130908282 -438960035#1"/>
    </vehicle>
	<vehicle id="46" depart="0.00">
        <route edges="-202992522#3 202992522#2 202992524#0 202992524#3 29961183#4 297382770#0 589539519#0"/>
    </vehicle>
	<vehicle id="47" depart="0.00">
        <route edges="1049253134 45839048#0 50511237#0 297296770#0 6056532#0 45838762#1 971624710 6062876#0 509325421 50799689#0 -321444900 -648026207#1 -333922462#1 -50260020#7 -50260020#5 70948801#3"/>
    </vehicle>
	<vehicle id="48" depart="0.00">
        <route edges="6054255#6 6054255#7 -297294784#2 494175930#0 297368443#0 146537579#0 130285135#0 397319284#0 397319281#0 421734517#0 298814317#0 -347003330#3 347003328#0 -397303092#2 -397303090#1 -175873836#2 130802372#0 130802372#3 589551073#0 1051018092#0 345633934 1051018093#0 589539535#0 589533502#0 468434122#0 468434122#2 695842775 469157093 469157092 468434120#0 345633936#0 466349886#0 466349886#2 466349886#3 130802362#0"/>
    </vehicle>
	<vehicle id="49" depart="0.00">
        <route edges="296971737#0 6054254#0 50431292#0 6057417#0 6056366#0 6056366#3 130889756#0 130889756#3 130889756#5 130889756#7 130889757#0 698748857#0 589539536#0 589539536#2 589539536#3 589539536#4 590581668#0 590581668#2 1049842802#0 1049842803 1049842804 589539534#0 1049287312#0 1049287312#2 126303354#0 126303354#2 345709542#0 1048676964#0 298848145#0 130285121#0 508158271 508158272#0 50260020#0 50260020#2 50260020#4 50260020#6 333922462#0"/>
    </vehicle>
</routes>
