<?xml version="1.0" encoding="UTF-8"?>
<!-- generated on 2022-10-26 03:15:06.900304 by $Id$ UNKNOWN
  options: -n /Users/nafiulhassan/veins-5.1/examples/veins/input/washingtondc/30/washingtondc.net.xml -s 8 -e 120 -o /Users/nafiulhassan/veins-5.1/examples/veins/input/washingtondc/seed-8/120/washingtondc.trips.xml
-->
<routes xmlns:xsi="http://www.w3.org/2001/XMLSchema-instance" xsi:noNamespaceSchemaLocation="http://sumo.dlr.de/xsd/routes_file.xsd">
    <trip id="0" depart="0.00" from="-521198981" to="837279711#2"/>
    <trip id="1" depart="1.00" from="-397327932#1" to="470165122"/>
    <trip id="2" depart="2.00" from="-305660797#4" to="-589551086#2"/>
    <trip id="3" depart="3.00" from="998360408#0" to="-50511365#7"/>
    <trip id="4" depart="4.00" from="466359338#0" to="296355738#1"/>
    <trip id="5" depart="5.00" from="296355738#0" to="298825115#1"/>
    <trip id="6" depart="6.00" from="-47916246#1" to="537114618#0"/>
    <trip id="7" depart="7.00" from="-333922526#3" to="-537114618#4"/>
    <trip id="8" depart="8.00" from="-130788227#6" to="-6057581#2"/>
    <trip id="9" depart="9.00" from="130908292#0" to="6054895#3"/>
    <trip id="10" depart="10.00" from="130889702#3" to="-397316195#1"/>
    <trip id="11" depart="11.00" from="-6055383#2" to="987878097#0"/>
    <trip id="12" depart="12.00" from="-297294789#2" to="436136927#2"/>
    <trip id="13" depart="13.00" from="130889684#0" to="468433805"/>
    <trip id="14" depart="14.00" from="125568108#0" to="469157092"/>
    <trip id="15" depart="15.00" from="29961175#0" to="466359339#1"/>
    <trip id="16" depart="16.00" from="6055382#0" to="397327932#0"/>
    <trip id="17" depart="17.00" from="-421290235#2" to="-297294792#2"/>
    <trip id="18" depart="18.00" from="696198845" to="297444235#0"/>
    <trip id="19" depart="19.00" from="-47916247#1" to="695842776#0"/>
    <trip id="20" depart="20.00" from="397327937#0" to="496467787#0"/>
    <trip id="21" depart="21.00" from="590581593#2" to="-70948803#2"/>
    <trip id="22" depart="22.00" from="130772931#1" to="589551086#0"/>
    <trip id="23" depart="23.00" from="-397329580#1" to="50511365#3"/>
    <trip id="24" depart="24.00" from="-347003330#3" to="469154543"/>
    <trip id="25" depart="25.00" from="476103804" to="696737929#2"/>
    <trip id="26" depart="26.00" from="583698432" to="29961183#0"/>
    <trip id="27" depart="27.00" from="-49299976" to="-436136927#4"/>
    <trip id="28" depart="28.00" from="347003330#0" to="321444900"/>
    <trip id="29" depart="29.00" from="-297380214#2" to="6055382#0"/>
    <trip id="30" depart="30.00" from="321477125#3" to="469165488#0"/>
    <trip id="31" depart="31.00" from="-514191883#2" to="-589539518#1"/>
    <trip id="32" depart="32.00" from="-126303366#1" to="125568108#3"/>
    <trip id="33" depart="33.00" from="-6057581#5" to="131052512#3"/>
    <trip id="34" depart="34.00" from="130889684#0" to="537114618#9"/>
    <trip id="35" depart="35.00" from="6053702#3" to="-468441884"/>
    <trip id="36" depart="36.00" from="130908282" to="-468433797#3"/>
    <trip id="37" depart="37.00" from="468436770" to="923370378#5"/>
    <trip id="38" depart="38.00" from="-50260020#5" to="50513886#1"/>
    <trip id="39" depart="39.00" from="-988196201#2" to="-130285136#2"/>
    <trip id="40" depart="40.00" from="50524889#10" to="125568108#0"/>
    <trip id="41" depart="41.00" from="-468433804" to="200019461#0"/>
    <trip id="42" depart="42.00" from="-537114618#1" to="130908290#3"/>
    <trip id="43" depart="43.00" from="24238018#2" to="131052386#3"/>
    <trip id="44" depart="44.00" from="397364246#2" to="-864614823#1"/>
    <trip id="45" depart="45.00" from="-347003227" to="-308739814#1"/>
    <trip id="46" depart="46.00" from="-382850737#1" to="333922526#0"/>
    <trip id="47" depart="47.00" from="130772956#0" to="520468343#2"/>
    <trip id="48" depart="48.00" from="321444900" to="476103805"/>
    <trip id="49" depart="49.00" from="961869114#0" to="-297294789#2"/>
    <trip id="50" depart="50.00" from="-130788192#2" to="-421076402"/>
    <trip id="51" depart="51.00" from="130889756#5" to="397321700#0"/>
    <trip id="52" depart="52.00" from="50429907" to="126303366#0"/>
    <trip id="53" depart="53.00" from="864614824#0" to="-120478419#1"/>
    <trip id="54" depart="54.00" from="575569267#11" to="-50799230#1"/>
    <trip id="55" depart="55.00" from="589551086#0" to="-131052512#3"/>
    <trip id="56" depart="56.00" from="864614824#0" to="50431293#0"/>
    <trip id="57" depart="57.00" from="987878092" to="397327121#0"/>
    <trip id="58" depart="58.00" from="-468450579#1" to="920636360#0"/>
    <trip id="59" depart="59.00" from="203119343" to="-305660797#1"/>
    <trip id="60" depart="60.00" from="423608853" to="298832235#3"/>
    <trip id="61" depart="61.00" from="297380210#0" to="-438958617#6"/>
    <trip id="62" depart="62.00" from="-397321698#2" to="397327124#0"/>
    <trip id="63" depart="63.00" from="292148140#3" to="-397327933"/>
    <trip id="64" depart="64.00" from="203025090#0" to="49299976"/>
    <trip id="65" depart="65.00" from="48018639#0" to="297294792#0"/>
    <trip id="66" depart="66.00" from="130889759#2" to="130772939"/>
    <trip id="67" depart="67.00" from="-520537747" to="-47916249#2"/>
    <trip id="68" depart="68.00" from="24238018#2" to="-397304550"/>
    <trip id="69" depart="69.00" from="49887645#0" to="476103805"/>
    <trip id="70" depart="70.00" from="435424522#2" to="-130802376#2"/>
    <trip id="71" depart="71.00" from="130788192#0" to="146537587#0"/>
    <trip id="72" depart="72.00" from="-345633936#1" to="888235719#0"/>
    <trip id="73" depart="73.00" from="50431292#0" to="29961175#0"/>
    <trip id="74" depart="74.00" from="476103810" to="-496467787#1"/>
    <trip id="75" depart="75.00" from="-535546520#1" to="345633935#0"/>
    <trip id="76" depart="76.00" from="50429907" to="466359338#0"/>
    <trip id="77" depart="77.00" from="-125568108#2" to="435106239#0"/>
    <trip id="78" depart="78.00" from="6056363#3" to="50428539#3"/>
    <trip id="79" depart="79.00" from="6059056#3" to="969732759#0"/>
    <trip id="80" depart="80.00" from="-520468343#3" to="-961869114#1"/>
    <trip id="81" depart="81.00" from="397316171" to="924793627#0"/>
    <trip id="82" depart="82.00" from="130802359#0" to="6063421#4"/>
    <trip id="83" depart="83.00" from="589533504#1" to="323742888"/>
    <trip id="84" depart="84.00" from="438964976#0" to="70948801#0"/>
    <trip id="85" depart="85.00" from="509325421" to="-958872539#4"/>
    <trip id="86" depart="86.00" from="583705854" to="-47916247#1"/>
    <trip id="87" depart="87.00" from="130802359#2" to="70948801#3"/>
    <trip id="88" depart="88.00" from="583705856#0" to="1036008535"/>
    <trip id="89" depart="89.00" from="-923370378#6" to="435106239#0"/>
    <trip id="90" depart="90.00" from="583698431#1" to="468469935#2"/>
    <trip id="91" depart="91.00" from="6062876#0" to="496467785#0"/>
    <trip id="92" depart="92.00" from="535520845#2" to="421077028#0"/>
    <trip id="93" depart="93.00" from="130788167#0" to="131448559#0"/>
    <trip id="94" depart="94.00" from="298825115#1" to="345709542#0"/>
    <trip id="95" depart="95.00" from="575569267#5" to="-6057581#5"/>
    <trip id="96" depart="96.00" from="-297380210#3" to="49999718#0"/>
    <trip id="97" depart="97.00" from="-6059056#4" to="131052508#2"/>
    <trip id="98" depart="98.00" from="-397316524#1" to="535780677#0"/>
    <trip id="99" depart="99.00" from="-6060903#4" to="-923370378#11"/>
    <trip id="100" depart="100.00" from="520468347#2" to="29961183#2"/>
    <trip id="101" depart="101.00" from="-6062204" to="590605528#3"/>
    <trip id="102" depart="102.00" from="131052386#0" to="130772943#0"/>
    <trip id="103" depart="103.00" from="864614824#0" to="509326127#0"/>
    <trip id="104" depart="104.00" from="50429919" to="-589905511#3"/>
    <trip id="105" depart="105.00" from="520537749" to="409551582"/>
    <trip id="106" depart="106.00" from="542269314#0" to="130788192#0"/>
    <trip id="107" depart="107.00" from="508158270#0" to="509326776#0"/>
    <trip id="108" depart="108.00" from="130889757#0" to="468433794"/>
    <trip id="109" depart="109.00" from="508158268" to="987879163#0"/>
    <trip id="110" depart="110.00" from="6057581#5" to="508158271"/>
    <trip id="111" depart="111.00" from="-397360056#2" to="423607087"/>
    <trip id="112" depart="112.00" from="469154544" to="-321444900"/>
    <trip id="113" depart="113.00" from="297273916#2" to="589539520#0"/>
    <trip id="114" depart="114.00" from="6055727#0" to="6058793#0"/>
    <trip id="115" depart="115.00" from="-333922782#1" to="421268132#0"/>
    <trip id="116" depart="116.00" from="589539519#0" to="468433791#0"/>
    <trip id="117" depart="117.00" from="1051205228#0" to="-202992520#4"/>
    <trip id="118" depart="118.00" from="6057581#4" to="589533517#3"/>
    <trip id="119" depart="119.00" from="468433799#0" to="130788167#0"/>
</routes>
