<?xml version="1.0" encoding="UTF-8"?>
<!-- generated on 2022-10-26 03:08:36.346045 by $Id$ UNKNOWN
  options: -n /Users/nafiulhassan/veins-5.1/examples/veins/input/washingtondc/20/washingtondc.net.xml -s 28 -e 20 -o /Users/nafiulhassan/veins-5.1/examples/veins/input/washingtondc/seed-28/20/washingtondc.trips.xml
-->
<routes xmlns:xsi="http://www.w3.org/2001/XMLSchema-instance" xsi:noNamespaceSchemaLocation="http://sumo.dlr.de/xsd/routes_file.xsd">
    <trip id="0" depart="0.00" from="-397316180#1" to="-397329570"/>
    <trip id="1" depart="1.00" from="421076400#0" to="-468450579#1"/>
    <trip id="2" depart="2.00" from="-397329572#1" to="296971737#0"/>
    <trip id="3" depart="3.00" from="131052512#2" to="-509325914"/>
    <trip id="4" depart="4.00" from="130889758#4" to="575569267#5"/>
    <trip id="5" depart="5.00" from="-397327939#1" to="-469165489#1"/>
    <trip id="6" depart="6.00" from="-130908283#2" to="-575569267#4"/>
    <trip id="7" depart="7.00" from="-347003227" to="983121554#0"/>
    <trip id="8" depart="8.00" from="1049287312#0" to="985426724"/>
    <trip id="9" depart="9.00" from="-397327937#1" to="6055383#0"/>
    <trip id="10" depart="10.00" from="321477125#0" to="469154544"/>
    <trip id="11" depart="11.00" from="468436769#0" to="-6057595#2"/>
    <trip id="12" depart="12.00" from="-537114618#10" to="468469915#0"/>
    <trip id="13" depart="13.00" from="-397329570" to="-130285136#2"/>
    <trip id="14" depart="14.00" from="50710195#2" to="439875858#4"/>
    <trip id="15" depart="15.00" from="-6056371#1" to="333922462#0"/>
    <trip id="16" depart="16.00" from="6056366#0" to="-6061944#3"/>
    <trip id="17" depart="17.00" from="-397321705#1" to="131052386#0"/>
    <trip id="18" depart="18.00" from="-468433799#0" to="130788192#0"/>
    <trip id="19" depart="19.00" from="-131052512#2" to="50511365#3"/>
</routes>
