<?xml version="1.0" encoding="UTF-8"?>
<!-- generated on 2022-10-26 03:08:34.366250 by $Id$ UNKNOWN
  options: -n /Users/nafiulhassan/veins-5.1/examples/veins/input/washingtondc/20/washingtondc.net.xml -s 24 -e 20 -o /Users/nafiulhassan/veins-5.1/examples/veins/input/washingtondc/seed-24/20/washingtondc.trips.xml
-->
<routes xmlns:xsi="http://www.w3.org/2001/XMLSchema-instance" xsi:noNamespaceSchemaLocation="http://sumo.dlr.de/xsd/routes_file.xsd">
    <trip id="0" depart="0.00" from="47916248#0" to="575569267#13"/>
    <trip id="1" depart="1.00" from="-468469900#4" to="998338690#6"/>
    <trip id="2" depart="2.00" from="-47916247#2" to="468450542"/>
    <trip id="3" depart="3.00" from="-333922766#3" to="50429929"/>
    <trip id="4" depart="4.00" from="-436136927#5" to="476103803"/>
    <trip id="5" depart="5.00" from="496467787#0" to="50513886#0"/>
    <trip id="6" depart="6.00" from="203119342#0" to="589539517#0"/>
    <trip id="7" depart="7.00" from="985067151" to="-397316522"/>
    <trip id="8" depart="8.00" from="333922766#0" to="70948801#2"/>
    <trip id="9" depart="9.00" from="50428539#5" to="203025089#2"/>
    <trip id="10" depart="10.00" from="1033847613#0" to="696806634#0"/>
    <trip id="11" depart="11.00" from="-305660797#4" to="50511364#0"/>
    <trip id="12" depart="12.00" from="583698432" to="-45838764#1"/>
    <trip id="13" depart="13.00" from="1060936417" to="-998338690#5"/>
    <trip id="14" depart="14.00" from="354436361#2" to="130788167#1"/>
    <trip id="15" depart="15.00" from="6054252#2" to="6058193#0"/>
    <trip id="16" depart="16.00" from="1049303874#0" to="6054151#0"/>
    <trip id="17" depart="17.00" from="-297380211#3" to="-347003330#3"/>
    <trip id="18" depart="18.00" from="468444094#0" to="509649677"/>
    <trip id="19" depart="19.00" from="535462248" to="987879162#0"/>
</routes>
