<?xml version="1.0" encoding="UTF-8"?>
<!-- generated on 2022-10-26 03:16:07.255278 by $Id$ UNKNOWN
  options: -n /Users/nafiulhassan/veins-5.1/examples/veins/input/washingtondc/30/washingtondc.net.xml -s 23 -e 120 -o /Users/nafiulhassan/veins-5.1/examples/veins/input/washingtondc/seed-23/120/washingtondc.trips.xml
-->
<routes xmlns:xsi="http://www.w3.org/2001/XMLSchema-instance" xsi:noNamespaceSchemaLocation="http://sumo.dlr.de/xsd/routes_file.xsd">
    <trip id="0" depart="0.00" from="6058793#0" to="696737929#0"/>
    <trip id="1" depart="1.00" from="6054151#0" to="-305660797#2"/>
    <trip id="2" depart="2.00" from="420781368#0" to="131052512#4"/>
    <trip id="3" depart="3.00" from="352412039#0" to="-397327939#1"/>
    <trip id="4" depart="4.00" from="-47916243#1" to="203025090#0"/>
    <trip id="5" depart="5.00" from="-520463951#1" to="26707982#0"/>
    <trip id="6" depart="6.00" from="-130907982#1" to="-321444898"/>
    <trip id="7" depart="7.00" from="47916247#0" to="131052508#4"/>
    <trip id="8" depart="8.00" from="323742931" to="50008440"/>
    <trip id="9" depart="9.00" from="130772943#2" to="-296365351#2"/>
    <trip id="10" depart="10.00" from="509325421" to="397329577#0"/>
    <trip id="11" depart="11.00" from="468434113#2" to="436136927#5"/>
    <trip id="12" depart="12.00" from="923370378#1" to="130772943#2"/>
    <trip id="13" depart="13.00" from="50511365#2" to="130788195"/>
    <trip id="14" depart="14.00" from="397324962" to="468433804"/>
    <trip id="15" depart="15.00" from="1049253134" to="-321444898"/>
    <trip id="16" depart="16.00" from="297380211#0" to="47920785#0"/>
    <trip id="17" depart="17.00" from="409551582" to="203119343"/>
    <trip id="18" depart="18.00" from="466359338#2" to="-468469900#0"/>
    <trip id="19" depart="19.00" from="-468469890#1" to="1049842804"/>
    <trip id="20" depart="20.00" from="521198982" to="-47916247#1"/>
    <trip id="21" depart="21.00" from="-397316195#1" to="-352412039#1"/>
    <trip id="22" depart="22.00" from="-202992520#4" to="-6060903#1"/>
    <trip id="23" depart="23.00" from="397324964#0" to="521200399"/>
    <trip id="24" depart="24.00" from="120478694#0" to="130788204#0"/>
    <trip id="25" depart="25.00" from="-923370378#11" to="-988196201#2"/>
    <trip id="26" depart="26.00" from="50799230#7" to="397303092#0"/>
    <trip id="27" depart="27.00" from="-6055383#2" to="-397303092#2"/>
    <trip id="28" depart="28.00" from="509325914" to="476103804"/>
    <trip id="29" depart="29.00" from="537114618#6" to="-575569267#14"/>
    <trip id="30" depart="30.00" from="397315035#0" to="6057581#0"/>
    <trip id="31" depart="31.00" from="421037430#0" to="695842776#0"/>
    <trip id="32" depart="32.00" from="-468433799#0" to="923370378#5"/>
    <trip id="33" depart="33.00" from="-292148140#4" to="131052383#0"/>
    <trip id="34" depart="34.00" from="-130889749#1" to="520532355#0"/>
    <trip id="35" depart="35.00" from="469159255" to="923370378#10"/>
    <trip id="36" depart="36.00" from="520532349#0" to="696737929#1"/>
    <trip id="37" depart="37.00" from="354079210" to="985067151"/>
    <trip id="38" depart="38.00" from="50429921" to="126303356#0"/>
    <trip id="39" depart="39.00" from="924793627#0" to="130802360#1"/>
    <trip id="40" depart="40.00" from="-47916246#3" to="-298815729#1"/>
    <trip id="41" depart="41.00" from="297294792#0" to="-47916247#4"/>
    <trip id="42" depart="42.00" from="6061944#0" to="696806631#0"/>
    <trip id="43" depart="43.00" from="-509645504#3" to="-353283601"/>
    <trip id="44" depart="44.00" from="347003330#4" to="-468433803"/>
    <trip id="45" depart="45.00" from="397303092#0" to="520537743#1"/>
    <trip id="46" depart="46.00" from="-6053702#1" to="131052512#0"/>
    <trip id="47" depart="47.00" from="6054895#3" to="203025090#0"/>
    <trip id="48" depart="48.00" from="126303356#0" to="6053702#0"/>
    <trip id="49" depart="49.00" from="520537749-AddedOnRampEdge" to="6054252#0"/>
    <trip id="50" depart="50.00" from="469159256#0" to="130908292#2"/>
    <trip id="51" depart="51.00" from="469165475" to="535780677#2"/>
    <trip id="52" depart="52.00" from="466349886#0" to="-575569267#16"/>
    <trip id="53" depart="53.00" from="-983121553#5" to="130908290#3"/>
    <trip id="54" depart="54.00" from="50797097#0" to="397316204#0"/>
    <trip id="55" depart="55.00" from="397316195#0" to="535546520#0"/>
    <trip id="56" depart="56.00" from="-397304549#1" to="438964977"/>
    <trip id="57" depart="57.00" from="120478695#3" to="397317304"/>
    <trip id="58" depart="58.00" from="575569267#11" to="-589551087#2"/>
    <trip id="59" depart="59.00" from="696806633#2" to="-298832240"/>
    <trip id="60" depart="60.00" from="397319279#0" to="353283535#0"/>
    <trip id="61" depart="61.00" from="-537114618#8" to="397317310#0"/>
    <trip id="62" depart="62.00" from="297368443#0" to="237743944#2"/>
    <trip id="63" depart="63.00" from="48018651#0" to="-120478694#2"/>
    <trip id="64" depart="64.00" from="130889684#0" to="508158270#0"/>
    <trip id="65" depart="65.00" from="-421077027" to="589539519#0"/>
    <trip id="66" depart="66.00" from="-50427058" to="468469923#0"/>
    <trip id="67" depart="67.00" from="-468436769#1" to="237743944#2"/>
    <trip id="68" depart="68.00" from="131448559#0" to="-305368640#1"/>
    <trip id="69" depart="69.00" from="470165122" to="297380211#4"/>
    <trip id="70" depart="70.00" from="469159257#0" to="352412100"/>
    <trip id="71" depart="71.00" from="397318410#0" to="345633935#3"/>
    <trip id="72" depart="72.00" from="-983121554#7" to="6054255#6"/>
    <trip id="73" depart="73.00" from="-321444898" to="589551072#0"/>
    <trip id="74" depart="74.00" from="589539518#0" to="298832235#4"/>
    <trip id="75" depart="75.00" from="50799230#6" to="468450580#0"/>
    <trip id="76" depart="76.00" from="423607087" to="-923370378#11"/>
    <trip id="77" depart="77.00" from="1051018093#0" to="126303362#0"/>
    <trip id="78" depart="78.00" from="-998360408#3" to="723610179"/>
    <trip id="79" depart="79.00" from="126303354#2" to="130889705#2"/>
    <trip id="80" depart="80.00" from="131052515" to="520537748"/>
    <trip id="81" depart="81.00" from="297382769#0" to="397316176#0"/>
    <trip id="82" depart="82.00" from="-6054255#2" to="-6061387#2"/>
    <trip id="83" depart="83.00" from="-333922526#1" to="-510723128#1"/>
    <trip id="84" depart="84.00" from="-6057581#1" to="583705856#2"/>
    <trip id="85" depart="85.00" from="308739814#0" to="-397315035#2"/>
    <trip id="86" depart="86.00" from="297273916#2" to="-397321697#1"/>
    <trip id="87" depart="87.00" from="397321697#0" to="202992524#3"/>
    <trip id="88" depart="88.00" from="589533518#4" to="-6054886#1"/>
    <trip id="89" depart="89.00" from="589533511" to="-589551086#2"/>
    <trip id="90" depart="90.00" from="983121553#1" to="439875858#6"/>
    <trip id="91" depart="91.00" from="-202992524#2" to="520468343#0"/>
    <trip id="92" depart="92.00" from="-6061387#5" to="130772943#1"/>
    <trip id="93" depart="93.00" from="-435424521#1" to="543712321#0"/>
    <trip id="94" depart="94.00" from="-333922765#2" to="50260020#2"/>
    <trip id="95" depart="95.00" from="130908059#0" to="468469915#0"/>
    <trip id="96" depart="96.00" from="-983121553#0" to="-298832240"/>
    <trip id="97" depart="97.00" from="6057421#2" to="468433794"/>
    <trip id="98" depart="98.00" from="-468433803" to="923370378#8"/>
    <trip id="99" depart="99.00" from="6057192#0" to="-468469900#1"/>
    <trip id="100" depart="100.00" from="-130788227#3" to="423608853"/>
    <trip id="101" depart="101.00" from="-420781368#1" to="49999716#3"/>
    <trip id="102" depart="102.00" from="297296762#0" to="476103806"/>
    <trip id="103" depart="103.00" from="397321704#0" to="50524889#7"/>
    <trip id="104" depart="104.00" from="535546520#0" to="421076400#0"/>
    <trip id="105" depart="105.00" from="409551583" to="1051205229#1"/>
    <trip id="106" depart="106.00" from="-397329578#2" to="-345633936#1"/>
    <trip id="107" depart="107.00" from="589533518#2" to="-50511365#1"/>
    <trip id="108" depart="108.00" from="146537585#0" to="1049226223#1"/>
    <trip id="109" depart="109.00" from="436136930#4" to="347003328#0"/>
    <trip id="110" depart="110.00" from="589533518#5" to="202992519#0"/>
    <trip id="111" depart="111.00" from="130788167#0" to="466359342#0"/>
    <trip id="112" depart="112.00" from="50429908" to="6058793#0"/>
    <trip id="113" depart="113.00" from="1049226224#0" to="590598870#0"/>
    <trip id="114" depart="114.00" from="971624710" to="971624710"/>
    <trip id="115" depart="115.00" from="-397327937#1" to="130802372#0"/>
    <trip id="116" depart="116.00" from="50797098#6" to="537114618#2"/>
    <trip id="117" depart="117.00" from="-202992520#6" to="130889758#12"/>
    <trip id="118" depart="118.00" from="496467787#0" to="50431292#0"/>
    <trip id="119" depart="119.00" from="353283534#1" to="-50799230#2"/>
</routes>
