<?xml version="1.0" encoding="UTF-8"?>
<!-- generated on 2022-10-26 03:16:21.963816 by $Id$ UNKNOWN
  options: -n /Users/nafiulhassan/veins-5.1/examples/veins/input/washingtondc/30/washingtondc.net.xml -s 27 -e 60 -o /Users/nafiulhassan/veins-5.1/examples/veins/input/washingtondc/seed-27/60/washingtondc.trips.xml
-->
<routes xmlns:xsi="http://www.w3.org/2001/XMLSchema-instance" xsi:noNamespaceSchemaLocation="http://sumo.dlr.de/xsd/routes_file.xsd">
    <trip id="0" depart="0.00" from="468433793#0" to="469165488#0"/>
    <trip id="1" depart="1.00" from="70948801#2" to="-47916247#2"/>
    <trip id="2" depart="2.00" from="-297296749#2" to="535520845#0"/>
    <trip id="3" depart="3.00" from="120478695#4" to="130788207#6"/>
    <trip id="4" depart="4.00" from="521198981" to="-468469900#4"/>
    <trip id="5" depart="5.00" from="6056366#0" to="297759292#1"/>
    <trip id="6" depart="6.00" from="-297380214#2" to="6057544#2"/>
    <trip id="7" depart="7.00" from="397324964#0" to="-298832240"/>
    <trip id="8" depart="8.00" from="575569267#7" to="50710195#0"/>
    <trip id="9" depart="9.00" from="50428539#6" to="468433797#3"/>
    <trip id="10" depart="10.00" from="988196201#0" to="-126303362#1"/>
    <trip id="11" depart="11.00" from="924793627#0" to="460536376#0"/>
    <trip id="12" depart="12.00" from="-6053702#1" to="434444693#0"/>
    <trip id="13" depart="13.00" from="121980352" to="466359340#0"/>
    <trip id="14" depart="14.00" from="476103809#0" to="333922766#4"/>
    <trip id="15" depart="15.00" from="-352411913#1" to="130889756#7"/>
    <trip id="16" depart="16.00" from="-998360408#3" to="50429913"/>
    <trip id="17" depart="17.00" from="6061387#0" to="50710195#2"/>
    <trip id="18" depart="18.00" from="352412039#0" to="-468433804"/>
    <trip id="19" depart="19.00" from="47916243#0" to="-6057544#2"/>
    <trip id="20" depart="20.00" from="998338690#0" to="-468434116#1"/>
    <trip id="21" depart="21.00" from="920893151#0" to="-130788158#1"/>
    <trip id="22" depart="22.00" from="508158268" to="126303356#0"/>
    <trip id="23" depart="23.00" from="397327121#0" to="131052297#6"/>
    <trip id="24" depart="24.00" from="1036008539" to="202992520#3"/>
    <trip id="25" depart="25.00" from="521198982" to="130285119#2"/>
    <trip id="26" depart="26.00" from="130788155#0" to="50799230#6"/>
    <trip id="27" depart="27.00" from="-468450579#1" to="130285136#0"/>
    <trip id="28" depart="28.00" from="333922765#0" to="323742930#1"/>
    <trip id="29" depart="29.00" from="-468433804" to="50511365#4"/>
    <trip id="30" depart="30.00" from="298825115#0" to="-333922766#3"/>
    <trip id="31" depart="31.00" from="125568108#0" to="-296365351#1"/>
    <trip id="32" depart="32.00" from="126303361#3" to="-397316203#1"/>
    <trip id="33" depart="33.00" from="-6053702#4" to="397316195#0"/>
    <trip id="34" depart="34.00" from="469159257#0" to="-983121554#1"/>
    <trip id="35" depart="35.00" from="297285722#0" to="321477125#4"/>
    <trip id="36" depart="36.00" from="397355102#0" to="6055551#0"/>
    <trip id="37" depart="37.00" from="-509646034#1" to="50524890#5"/>
    <trip id="38" depart="38.00" from="397317307#0" to="6054151#0"/>
    <trip id="39" depart="39.00" from="469154544" to="-120478694#2"/>
    <trip id="40" depart="40.00" from="-296365351#2" to="509646034#0"/>
    <trip id="41" depart="41.00" from="-983121554#5" to="435106240#1"/>
    <trip id="42" depart="42.00" from="-347003329#2" to="397317311#2"/>
    <trip id="43" depart="43.00" from="131052297#3" to="296365351#3"/>
    <trip id="44" depart="44.00" from="-120478695#3" to="6054252#2"/>
    <trip id="45" depart="45.00" from="583698433#0" to="50428539#2"/>
    <trip id="46" depart="46.00" from="438958617#0" to="-520537748"/>
    <trip id="47" depart="47.00" from="-47916243#1" to="543909823#0"/>
    <trip id="48" depart="48.00" from="120478529#0" to="130889702#0"/>
    <trip id="49" depart="49.00" from="590581593#0" to="126303354#2"/>
    <trip id="50" depart="50.00" from="988196201#0" to="-468469900#4"/>
    <trip id="51" depart="51.00" from="589533512#0" to="-923370378#7"/>
    <trip id="52" depart="52.00" from="-397360056#2" to="296365924#0"/>
    <trip id="53" depart="53.00" from="535780677#0" to="-352831076#4"/>
    <trip id="54" depart="54.00" from="421075190#0" to="589533512#1"/>
    <trip id="55" depart="55.00" from="-131052297#2" to="297759292#1"/>
    <trip id="56" depart="56.00" from="1049226224#0" to="297273917"/>
    <trip id="57" depart="57.00" from="543712269#0" to="202992520#3"/>
    <trip id="58" depart="58.00" from="1033847612#0" to="-50260020#7"/>
    <trip id="59" depart="59.00" from="521221938" to="-436136927#5"/>
</routes>
