<?xml version="1.0" encoding="UTF-8"?>

<!-- generated on 2022-10-26 03:15:32 by Eclipse SUMO duarouter Version 1.10.0
	<routes>

    <input>
        <net-file value="/Users/nafiulhassan/veins-5.1/examples/veins/input/washingtondc/30/washingtondc.net.xml"/>
        <route-files value="/Users/nafiulhassan/veins-5.1/examples/veins/input/washingtondc/seed-15/30/washingtondc.trips.xml"/>
    </input>

    <output>
        <output-file value="/Users/nafiulhassan/veins-5.1/examples/veins/input/washingtondc/seed-15/30/washingtondc.rou.xml"/>
        <alternatives-output value="/Users/nafiulhassan/veins-5.1/examples/veins/input/washingtondc/seed-15/30/washingtondc.rou.alt.xml"/>
    </output>

    <report>
        <ignore-errors value="true"/>
    </report>

</configuration>
-->

	<routes>
	<vehicle id="0" depart="0.00">
        <route edges="864614824#0 203119345#0 -468433803 -468433804 -130908282 -438960035#1 -468433805 -468433806#1 -6061944#3 126303354#0 126303354#2 175873836#0 397303090#0 397303092#0 130802371#0 126303362#0 -126303362#1"/>
    </vehicle>
	<vehicle id="1" depart="0.00">
        <route edges="503185206 583698431#0 50429922 -352412106 352412106 521221938 521198981 203119343 50429924 583698432 520537744 520537746 583705854 535520845#0 535520845#1 323742932 -126303366#1 469165486#0 469165487 469165488#0 590581668#0 590581668#2 1049842802#0 1049842803 1049842804 589539534#0 1049287312#0 1049287312#2 126303354#0 126303354#2 345709542#0 1048676964#0 298848145#0 130285121#0 508158271 508158272#0 130889749#0 130889749#2 397316524#0 -397316522 -298814317#2 468433794 397319278#0 298814316 454817812 -24238018#5 -24238018#1 -45838764#1"/>
    </vehicle>
	<vehicle id="2" depart="0.00">
        <route edges="983121554#6 983121554#7 983121554#9 469159256#0 469159256#3 469159259 469159258#0 469159258#1 469159258#2 468469919#0 468469927#0 468469927#2 460536376#0 468469923#0 468469931#0 468469935#0 468469935#2 468469943#0 468469939#0 468469946#0 200019461#0 130788195 130788190 -130788190"/>
    </vehicle>
	<vehicle id="3" depart="0.00">
        <route edges="589905639 509325916 476103804 476103801 321477125#6 520537743#0 520537743#1 354436361#0 354436361#1 354436361#2 583698434 583698432 520537744 520537746 583705854 535520845#0 535520845#1 535520845#2 352412093#0 -352411913#1 -354202945#1 476103809#0 298832254#0 298832261#0 298832240 864614823#0 864614823#2 468469923#0"/>
    </vehicle>
	<vehicle id="4" depart="0.00">
        <route edges="589533518#3 589533518#4 589533518#5 50797098#0 50797098#3 50797098#6 50797098#8 543712269#0 543712269#2 -537114618#4 -537114618#2 -537114618#1 -468434115#1 -923370378#11 -923370378#9 -923370378#7 -923370378#6 -923370378#4 -923370378#2 -923370378#0 -6055551#1 120478418#0 423615732#0 998360408#0 998360408#1"/>
    </vehicle>
	<vehicle id="5" depart="0.00">
        <route edges="-575569267#4 575569267#3 575569267#5 575569267#7 575569267#9 -125568108#4 -125568108#2 -125568108#1 -130788190 -130788195 435424520#0 -420781368#1 -920893151#1 -6057581#6 -6057581#5 -6057581#4 -6057581#3 -6057581#2 -6057581#1 954271698#0 988196201#0 6057595#0 -202992519#2 -468441158#1 -468441885#1 -468441884 120478695#5"/>
    </vehicle>
	<vehicle id="6" depart="0.00">
        <route edges="47916245#0 120478529#0 120478529#1 1049253134 45839048#0 50511237#0 297296770#0 -155011691#1 -29961175#1 -988196201#2 -6062204"/>
    </vehicle>
	<vehicle id="7" depart="0.00">
        <route edges="-6057544#5 6057544#3 130908059#0 120478695#0 120478695#3 120478695#4 120478695#5 468441885#0 468441885#2 202992519#0 -6057595#2 -988196201#2 -6062204 6062876#0 509325421 468450542 130285122#0 126303355#0 -756406654#1 -347003227 -468433791#1 -521200399"/>
    </vehicle>
	<vehicle id="8" depart="0.00">
        <route edges="589533518#3 589533518#4 589533518#5 50797098#0 50797098#3 50797098#6 50797098#8 130889756#7 130889757#0 698748857#0 589539536#0 589539536#2 589539536#3"/>
    </vehicle>
	<vehicle id="9" depart="0.00">
        <route edges="514191883#0 120478695#3 120478695#4 120478695#5 468441885#0 468441885#2 202992519#0 589551087#0 -296355738#2 -296355738#0 -468469887 -468469894#1 -520468343#3"/>
    </vehicle>
	<vehicle id="10" depart="0.00">
        <route edges="6058793#0 1049842802#0 1049842803 1049842804 589539534#0 1049287312#0 1049287312#2 126303354#0 126303354#2 345709542#0 1048676964#0 298848145#0 1047793071 298814315#0 508158270#0 421268132#0 321444902#3"/>
    </vehicle>
	<vehicle id="11" depart="0.00">
        <route edges="-537114618#1 537114618#0 537114618#2 537114618#3 537114618#5 537114618#6 537114618#9 469165490#0 469165490#2 590581668#0 590581668#2 1049842802#0 1049842803 1049842804 589539534#0 1049287312#0 1049287312#2 126303354#0 126303354#2 345709542#0 1048676964#0 298848145#0 1047793071 298814315#0 508158270#0 421268132#0 439875857#0 590598870#0 509326776#0 650605162 6062204 988196201#0 6057595#0 202992520#2 202992520#3 -590581593#5 -590581593#3 -590581593#1 274292550#0"/>
    </vehicle>
	<vehicle id="12" depart="0.00">
        <route edges="131052515 155011689#0 -297296749#2 297296770#0 6056532#0 45838762#1 6062201#0 -130788155#2 -434444693#2 -509646034#1 -352412073 -47920785#1 -352412039#1 -298815729#1 -476103813#1 -352412083 -126303356#1 -298832261#2 -298832254#2"/>
    </vehicle>
	<vehicle id="13" depart="0.00">
        <route edges="397319284#0 542269372#0 589533564#0 589539521#0 70948801#0 70948801#2 70948801#3 439875858#1 439875858#4 439875858#6 439875858#8 516085385 509646035#0 509646035#2 130788204#0 435424522#2 435424522#4 48018661#0 130772931#1"/>
    </vehicle>
	<vehicle id="14" depart="0.00">
        <route edges="397321704#0 397321703#0 131076063#0 589539520#0 -333922526#3 -333922526#1 -50260020#7 -50260020#5 -50260020#3 -50260020#1 130927087#0 468433793#0 354079210 468433792#0 347003228#0 347003229#0 347003229#2 589551073#0 1051018092#0 345633934 1051018093#0 6060903#0"/>
    </vehicle>
	<vehicle id="15" depart="0.00">
        <route edges="466359340#1 535462248 421075190#0 421075190#1 421075190#2 421075190#3 345633935#0 345633935#3 345633935#5 345633935#7 888235719#0 888235719#3 50797098#0 130908289#9 130908289#11"/>
    </vehicle>
	<vehicle id="16" depart="0.00">
        <route edges="589539518#0 -589539518#1 -347003329#2 -333922526#3 -333922526#1 333922462#0 648026207#0 321444900 321444898 321444899#0 130788192#0 130788195 308739814#0 435424522#0 435424522#2 435424522#4 48018661#0 130772931#1 575569268 130772928#0 121863780#0 121863780#1 988487224#0 988487222 988487223"/>
    </vehicle>
	<vehicle id="17" depart="0.00">
        <route edges="298829677#0 70948803#0 397316176#0 397316171 397316180#0 397316186#0 397316195#0 397316204#0 347003327#0 397327124#0 468433796 397327121#0 347003229#0 347003229#2 589551073#0 1051018092#0 345633934 1051018093#0 589539535#0 589533502#0 468434122#0 468434122#2 695842775"/>
    </vehicle>
	<vehicle id="18" depart="0.00">
        <route edges="-130788227#1 -421037430#2 6056532#0 45838762#1 971624710 6062876#0 509325421 468450542 130285122#0 126303355#0 347003228#0 347003229#0 347003229#2 589551073#0 1051018092#0 345633934 1051018093#0 589539535#0 589533502#0 468434122#0 468434122#2 695842775 469157093 469157092 1048252755#0 589533511 520537739 -421076402"/>
    </vehicle>
	<vehicle id="19" depart="0.00">
        <route edges="-468434115#1 -923370378#11 -923370378#9 -923370378#7 -923370378#6 -923370378#4 -923370378#2 -923370378#0 -6055551#1 -468434116#1 6062397#0 6063274#0"/>
    </vehicle>
	<vehicle id="20" depart="0.00">
        <route edges="469159258#1 469159258#2 468469919#0 468469927#0 468469927#2 460536376#0 468469923#0 468469931#0 468469935#0 468469935#2 468469943#0 -479469615#3 479469615#0"/>
    </vehicle>
	<vehicle id="21" depart="0.00">
        <route edges="-920636360#1 -397355101 509640269 920636360#0 589551072#0 6063274#0 1049303874#0 130889755#0 130889756#0 130889756#3 130889756#5 130889756#7 130889757#0 698748857#0 589539536#0 589539536#2 589539536#3 589539536#4 590581668#0 590581668#2 1049842802#0 1049842803 1049842804 589539534#0 1049287312#0 1049287312#2 126303354#0 126303354#2 345709542#0 1048676964#0 -347003327#2 -397316204#2 -397316195#1 -397316186#1 -397316180#1 -397316171 -397316176#1 -70948803#2 468450576#0 535780677#0 298825115#1"/>
    </vehicle>
	<vehicle id="22" depart="0.00">
        <route edges="6051343 321477125#0 321477125#3 321477125#4 321477125#5 321477125#6 520537743#0 520537743#1 354436361#0 354436361#1 354436361#2 583698434 583698432 520537744 520537746 583705854 535520845#0 535520845#1 535520845#2 352412093#0 -352411913#1 -354202945#1 476103809#0 298832254#0 298832261#0 126303356#0 476103811 -352412083"/>
    </vehicle>
	<vehicle id="23" depart="0.00">
        <route edges="-397316204#2 397316204#0 347003327#0 397327124#0 468433796 397327121#0 203119342#0 468433795#0 -468433795#1 -203119342#1"/>
    </vehicle>
	<vehicle id="24" depart="0.00">
        <route edges="297296762#0 50511237#0 297296770#0 6056532#0 6057581#0 6057581#2 6057581#3 6057581#4 6057581#5 6057581#6 920893151#0 420781368#0 435424521#0 130788190 125568108#0 125568108#2 125568108#3 575569267#11 575569267#13 575569267#15"/>
    </vehicle>
	<vehicle id="25" depart="0.00">
        <route edges="397317310#0 397319284#0 397319281#0 421734517#0 298814317#0 -347003330#3 397316186#0 397316195#0 397316204#0 347003327#0 397327124#0 468433796 397327121#0 203119342#0 468433795#0 723610179 -476103813#1 -352412083 -126303356#1 -298832261#2 -298832254#2 -476103809#1 354202945#0 352411913#0 130908283#0"/>
    </vehicle>
	<vehicle id="26" depart="0.00">
        <route edges="305660797#3 469165490#0 469165490#2 590581668#0 590581668#2 1049842802#0 1049842803 1049842804 589539534#0 1049287312#0 1049287312#2 126303354#0 126303354#2 345709542#0 1048676964#0 298848145#0 1047793071 298814315#0 508158270#0 421268132#0 439875857#0 590598870#0 509326776#0 650605162 6062204 988196201#0 29961175#0 468469890#0 -468469890#1"/>
    </vehicle>
	<vehicle id="27" depart="0.00">
        <route edges="696737929#1 696737929#2 130802360#0 130802360#1 469159255 353283534#0 353283534#1 323742931 126303364 323742932 -126303366#1 469165486#0 469165487 469165488#0 590581668#0 590581668#2 1049842802#0 1049842803 1049842804 589539534#0 1049287312#0 1049287312#2 126303354#0 126303354#2 345709542#0 1048676964#0 298848145#0 130285121#0"/>
    </vehicle>
	<vehicle id="28" depart="0.00">
        <route edges="-537114618#8 537114618#6 543712321#0 1033847612#0 1033847614#0 1033847614#3 1033847615#0"/>
    </vehicle>
	<vehicle id="29" depart="0.00">
        <route edges="535780677#2 6055389#0 397316203#0 70948803#0 397316176#0 397316171 397316180#0 397316186#0 397316195#0 397316204#0 347003327#0 397327124#0 468433796 397327121#0 347003229#0 347003229#2 589551073#0 1051018092#0 345633934 1051018093#0 589539535#0 589533502#0 468434122#0 468434122#2 695842775 469157093 469157092 1048252755#0 589533511 520537739 589905634 466349884 1049230589"/>
    </vehicle>
</routes>
