<?xml version="1.0" encoding="UTF-8"?>

<!-- generated on 2022-10-26 03:16:18 by Eclipse SUMO duarouter Version 1.10.0
	<routes>

    <input>
        <net-file value="/Users/nafiulhassan/veins-5.1/examples/veins/input/washingtondc/30/washingtondc.net.xml"/>
        <route-files value="/Users/nafiulhassan/veins-5.1/examples/veins/input/washingtondc/seed-26/60/washingtondc.trips.xml"/>
    </input>

    <output>
        <output-file value="/Users/nafiulhassan/veins-5.1/examples/veins/input/washingtondc/seed-26/60/washingtondc.rou.xml"/>
        <alternatives-output value="/Users/nafiulhassan/veins-5.1/examples/veins/input/washingtondc/seed-26/60/washingtondc.rou.alt.xml"/>
    </output>

    <report>
        <ignore-errors value="true"/>
    </report>

</configuration>
-->

	<routes>
	<vehicle id="0" depart="0.00">
        <route edges="50429919 583705854 535520845#0 535520845#1 323742932 -126303366#1 469165486#0 469165487 469165488#0 590581668#0 590581668#2 1049842802#0 1049842803 1049842804 589539534#0 1049287312#0 1049287312#2 126303354#0 126303354#2 345709542#0 1048676964#0 298848145#0 130285121#0 508158271 508158272#0 50260020#0 50260020#2 50260020#4 -50260020#5"/>
    </vehicle>
	<vehicle id="1" depart="0.00">
        <route edges="-50511365#0 50511365#0 50511365#1 466352083#0 -297296749#2 297296770#0 6056532#0 45838762#1 971624710 6062876#0 509325421 468450542 130285122#0 126303355#0 347003228#0 347003229#0 347003229#2 589551073#0 1051018092#0 345633934 1051018093#0 589539535#0 589533502#0 468434122#0 468434122#2 695842775 469157093 469157092 468434120#0 345633936#0 466349886#0 321477125#3 321477125#4 421075190#1"/>
    </vehicle>
	<vehicle id="2" depart="0.00">
        <route edges="-296355738#0 -468469887 -468469894#1 468469894#0 468469887 296355738#0 296355738#1 -468469890#3 -468469890#1 155011691#0 6056532#0 45838762#1 971624710 6062876#0 509325421 468450542 130285122#0 126303355#0 347003228#0 347003229#0 347003229#2 589551073#0 1051018092#0 345633934 1051018093#0 589539535#0 589533502#0 468434122#0 468434122#2 695842775 469157093 583698433#0 696806631#0 50797097#0"/>
    </vehicle>
	<vehicle id="3" depart="0.00">
        <route edges="50524889#10 -50799230#8 -50799230#6 -50799230#5 -50799230#2 -50799230#1 6057204#0 985426725#0 985426724 468436769#0 6056069#0 589533583#0 589539536#0 589539536#2 589539536#3 589539536#4 590581668#0 590581668#2 1049842802#0 1049842803 1049842804 589539534#0 1049287312#0 1049287312#2 126303354#0 126303354#2 345709542#0 1048676964#0 298848145#0 1047793071 298814315#0 508158270#0 421268132#0 439875857#0 590598870#0 509326776#0 252140542#0 -202992524#7 -202992524#4 -202992524#2 -202992522#3 -202992522#1"/>
    </vehicle>
	<vehicle id="4" depart="0.00">
        <route edges="469154540#0 26707840#0 698748857#0 589539536#0 589539536#2 589539536#3 589539536#4 590581668#0 590581668#2 1049842802#0 1049842803 1049842804 589539534#0 1049287312#0 1049287312#2 126303354#0 126303354#2 345709542#0 1048676964#0 298848145#0 1047793071 298814315#0 508158270#0 421268132#0 439875857#0 590598870#0 509326776#0 650605162 6062204 988196201#0 29961175#0"/>
    </vehicle>
	<vehicle id="5" depart="0.00">
        <route edges="45838766#1 297294789#0 494175930#0 297368443#0 146537579#0 130285135#0 397319284#0 397319281#0 421734517#0 298814317#0 -347003330#3 347003328#0 -397303092#2 -397303090#1 -175873836#2 130802372#0 130802372#3 589551073#0 1051018092#0 345633934 1051018093#0 589539535#0 589533502#0 469165486#0 469165487 469165488#0 -469165489#1 -469165490#1 -537114618#10 -537114618#8 -537114618#5 -537114618#4 -537114618#2 6062881#0 985067151 130285133#0-AddedOnRampEdge 130285133#0 6056363#0 6056363#2 6056363#3 203119341#0 696806636#0"/>
    </vehicle>
	<vehicle id="6" depart="0.00">
        <route edges="983121554#7 983121554#9 466359338#0 466359338#2 438964977 -352412093#2 -421061860 126303364 323742932 -126303366#1 468434122#0 468434122#2 695842775 469157093 469157092 1048252755#0 589533511 520537739 589905634 466349884 1049230589 130908290#0"/>
    </vehicle>
	<vehicle id="7" depart="0.00">
        <route edges="583698433#0 6056069#0 589533583#0 589539536#0 589539536#2 589539536#3 589539536#4 590581668#0 590581668#2 1049842802#0 1049842803 1049842804 589539534#0 1049287312#0 1049287312#2 126303354#0 126303354#2 345709542#0 1048676964#0 298848145#0 130285121#0 508158271"/>
    </vehicle>
	<vehicle id="8" depart="0.00">
        <route edges="923370378#3 923370378#5 923370378#7 923370378#8 923370378#10 468434115#0 537114618#0 537114618#2 537114618#3 537114618#5 537114618#6 537114618#9 469165490#0 469165490#2 590581668#0 590581668#2 -6058793#2 -130908283#4"/>
    </vehicle>
	<vehicle id="9" depart="0.00">
        <route edges="6063420#0 155011689#0 -297296749#2 -47916246#3 -47916246#1 -296355738#2 -296355738#0 -468469887 -468469894#1 -520468343#3 -520468343#1"/>
    </vehicle>
	<vehicle id="10" depart="0.00">
        <route edges="-397327937#1 -397327936#1 589905511#0 120478695#0 120478695#3 120478695#4 120478695#5 468441885#0 468441885#2 202992519#0 -6057595#2 29961175#0 155011691#0 6056532#0 6057581#0 6057581#2 6057581#3 6057581#4 6057581#5 6057581#6 920893151#0 420781368#0"/>
    </vehicle>
	<vehicle id="11" depart="0.00">
        <route edges="575569267#7 -575569267#8 -575569267#6 -575569267#4 520463951#0 520463951#2 479469615#0 535546520#0 535546520#3 347003226 521200399 468433791#0 347003227 756406654#0 347003228#0 347003229#0 347003229#2 589551073#0 1051018092#0 345633934 1051018093#0 589539535#0 589533502#0 469165486#0 469165487 469165488#0 -469165489#1 -469165490#1 469154540#0 26707840#0 698748857#0"/>
    </vehicle>
	<vehicle id="12" depart="0.00">
        <route edges="130788192#0 -130788192#2 -434444693#2 -509646034#1 50429907 421077028#0 535546521#0"/>
    </vehicle>
	<vehicle id="13" depart="0.00">
        <route edges="-131052297#5 131052297#3 26572919#0 26572919#3 297380214#3 -297380210#3 -297380210#1 -589539518#3 -589539518#1 -589533563#2 -347003330#6 -347003330#3 347003328#0 -397303092#2 -397303090#1 -175873836#2 130802372#0 130802372#3 589551073#0 1051018092#0 345633934 1051018093#0 589539535#0 589533502#0 468434122#0 468434122#2 695842775 469157093 469157092 468434120#0 345633935#0 345633935#3 345633935#5 345633935#7 888235719#0 888235719#3"/>
    </vehicle>
	<vehicle id="14" depart="0.00">
        <route edges="-983121553#1 -983121553#0 983121554#0 983121554#4 983121554#6 983121554#7 983121554#9 469159256#0 469159256#3 469159259 469159258#0 469159258#1 469159258#2 468469919#0 468469927#0 468469927#2 460536376#0 468469923#0 468469931#0 468469935#0 468469935#2 468469943#0 535546520#0 535546520#3 347003226 521200399 468433791#0 347003227 756406654#0 -468433792#1 -354079210 -468433793#1 354079209#0"/>
    </vehicle>
	<vehicle id="15" depart="0.00">
        <route edges="-397321705#1 -589551092#1 -589551092#0 146537587#0 397324962 297368443#0 146537579#0 130285135#0 -333922782#1 -333922765#2 -347003329#2 -333922526#3 -333922526#1 -297382770#5 -252140542#6 -202992524#7"/>
    </vehicle>
	<vehicle id="16" depart="0.00">
        <route edges="-125568108#9 -575569267#10 -575569267#8 -575569267#6 -575569267#4 -575569267#2 575569268 130772928#0 121863780#0 121863780#1 988487224#0 48018630 988487225#0 130889704#0 130889704#1 837279711#0 837279711#2 837279711#4 1051205229#0 1051205229#1 130889702#0 130889702#3 130889702#4 1052908775#0 130889705#0 130889705#2 697824964#0 454815093#0 696806633#0 696806633#2 935806772#0 935806772#2 1054633206#0 237743944#0 237743944#2 1049235346#0 130908291#0 466359340#0 466359340#1 535462248 421075190#0"/>
    </vehicle>
	<vehicle id="17" depart="0.00">
        <route edges="397319276 130285135#0 397319284#0 397319281#0 421734517#0 298814317#0 -347003330#3 397316186#0 397316195#0 397316204#0 347003327#0 397327124#0 468433796 397327121#0 203119342#0 468433795#0 723610179 -476103813#1 -352412083 -126303356#1 -298832261#2 -298832254#2 -476103809#1 354202945#0 352411913#0 -352412093#2 -421061860 -520537747 520537747"/>
    </vehicle>
	<vehicle id="18" depart="0.00">
        <route edges="589533511 354436361#0 354436361#1 354436361#2 583698434 583698432 520537744 520537746 583705854 535520845#0 535520845#1 323742932 -126303366#1 469165486#0 469165487 469165488#0 590581668#0 590581668#2 1049842802#0 1049842803 1049842804 589539534#0 1049287312#0 1049287312#2 126303354#0 126303354#2 345709542#0 1048676964#0 298848145#0 130285121#0 508158271 508158272#0 130889749#0 130889749#2 397316524#0 -397316522 347003330#4 589533563#0 589539518#0 589539518#2 297380210#0 297380210#2 -297380214#6 -297380214#2 -397329572#1 -397329570 -397329575#1 -130908059#2 -131052512#5 -131052512#3 131052512#3"/>
    </vehicle>
	<vehicle id="19" depart="0.00">
        <route edges="583705856#1 50429925 352412100 130889761 589533582 583698433#0 696806631#0 -496467787#1"/>
    </vehicle>
	<vehicle id="20" depart="0.00">
        <route edges="590581593#2 -590581593#3 -590581593#1"/>
    </vehicle>
	<vehicle id="21" depart="0.00">
        <route edges="6063421#1 6063421#2 6063421#3 6063421#4 292148140#3 50511237#0 297296770#0 6056532#0 6057581#0 6057581#2 6057581#3 6057581#4 6057581#5 6057581#6 920893151#0 420781368#0 435424521#0 308739814#0 435424522#0 435424522#2 435424522#4 48018661#0 130772931#1 575569268 130772928#0 121863780#0 121863780#1 988487224#0 48018630 988487225#0 130889704#0 130889704#1 837279711#0 837279711#2 837279711#4 1051205229#0 1051205229#1 130889702#0 130889702#3"/>
    </vehicle>
	<vehicle id="22" depart="0.00">
        <route edges="155011691#0 6056532#0 45838762#1 6062201#0 -130788155#2 -434444693#2 -509646034#1 -352412073 -47920785#1 -352412039#1 -298815729#1 -476103813#1 -352412083 -126303356#1 -298832261#2 -298832254#2 -476103809#1 354202945#0 352411913#0 -352412093#2 323742930#0 323742930#1 323742930#2"/>
    </vehicle>
	<vehicle id="23" depart="0.00">
        <route edges="-296365351#5 296365351#5 296365351#6 514191882#0 514191883#0 -120478695#2 397329575#0 397329570 397329572#0 297380214#0 297380214#3 -297380210#3 -297380210#1 -589539518#3 -589539518#1 -589533563#2 -347003330#6 -298814317#2"/>
    </vehicle>
	<vehicle id="24" depart="0.00">
        <route edges="397315033#0 -126303362#1 -130802371#2 -397303092#2 -397303090#1 421259825#0 74100353#0 508158273 508158270#0 421268132#0 439875857#0 590598870#0 509326776#0 650605162 6062204 988196201#0 29961175#0 468469890#0 468469890#2 47916246#0 47916246#2"/>
    </vehicle>
	<vehicle id="25" depart="0.00">
        <route edges="-203025089#1 -203025090#3 -203025090#1 297368443#0 146537579#0 130285135#0 397319284#0 397319281#0 421734517#0 298814317#0 -347003330#3 347003328#0 -397303092#2 -397303090#1 -175873836#2 130802372#0 130802372#3 589551073#0 1051018092#0 345633934 1051018093#0 589539535#0 589533502#0 469165486#0 469165487 469165488#0 -469165489#1 -469165490#1 -537114618#10 -537114618#8 -537114618#5 -537114618#4 -537114618#2 6062881#0 985067151 130285133#0-AddedOnRampEdge 130285133#0 6056363#0 6056363#2 6056363#3 203119341#0 130908289#3 130908289#5 130908289#6"/>
    </vehicle>
	<vehicle id="26" depart="0.00">
        <route edges="130802359#2 -130802359#2 -130802359#1 -297382769#6 -297382769#3 297382770#0 297382770#3 -50260020#7 -50260020#5 -50260020#3 -50260020#1 130927087#0 468433793#0 354079210 468433792#0 347003228#0 347003229#0 347003229#2 589551073#0 1051018092#0 345633934 1051018093#0 589539535#0 589533502#0 468434122#0 468434122#2 695842775 469157093 469157092 468434120#0 345633935#0 50799230#0 50799230#2 50799230#4 50799230#6"/>
    </vehicle>
	<vehicle id="28" depart="0.00">
        <route edges="397303092#0 -397303092#2 -397303090#1 421259825#0 74100353#0 508158273 508158270#0 468433793#0 354079210 468433792#0 -468433792#1 -354079210"/>
    </vehicle>
	<vehicle id="29" depart="0.00">
        <route edges="509325914 421076402 352412106 521221938 521198981 203119343 50429924 583698432 520537744 520537746 583705854 535520845#0 535520845#1 535520845#2 352412093#0 -352411913#1 -354202945#1 476103809#0 298832254#0 298832261#0 298832240 864614823#0 864614823#2 468469923#0 468469931#0 468469935#0 468469935#2 468469943#0 -479469615#3 637150476"/>
    </vehicle>
	<vehicle id="30" depart="0.00">
        <route edges="476103812 49999718#1 -468433795#1 -203119342#1 -397327121#1 -468433796 -397327124#1 298848145#0 130285121#0 508158271 508158272#0 130889749#0 130889749#2 397316524#0 -397316522 347003330#4 589533563#0 589539518#0 589539518#2 297380210#0 297380210#2 589539537#0 397327934#0 397327932#0"/>
    </vehicle>
	<vehicle id="31" depart="0.00">
        <route edges="-202992520#7 -202992520#6 -202992520#4 -202992520#2 -6057595#2 -988196201#2 -6062204 6062876#0 509325421 50799689#0 -321444900 -648026207#1 -333922462#1 333922526#0 333922526#2 347003329#0 -347003329#2"/>
    </vehicle>
	<vehicle id="32" depart="0.00">
        <route edges="-575569267#4 520463951#0 520463951#2 479469615#0 535546520#0 535546520#3 347003226 521200399 468433791#0 347003227 756406654#0 -468433792#1 -354079210 -468433793#1 354079209#0 987879163#0 508158268 987879162#0 421258870#0 397303090#0 397303092#0 130802371#0 126303362#0 -305368640#1"/>
    </vehicle>
	<vehicle id="33" depart="0.00">
        <route edges="-397329577#1 397329577#0 6054886#0 397329580#0 397329578#0 131076097#0 131076097#1 -297380210#3 -297380210#1 -589539518#3 -589539518#1 -589533563#2 -347003330#6 -298814317#2 468433794 436271294#0 409541717 50799606#0 397319279#0 70948803#0"/>
    </vehicle>
	<vehicle id="34" depart="0.00">
        <route edges="130285088#0 469165485#0 442066186#0 353283534#0 353283534#1 323742931 126303364 323742932 -126303366#1 469165486#0 469165487 469165488#0 -469165489#1 -469165490#1 -537114618#10 -537114618#8 -537114618#5 -537114618#4 -537114618#2 -537114618#1 -468434115#1 -923370378#11 -923370378#9 -923370378#7 -923370378#6 -923370378#4 -923370378#2 -923370378#0 -6055551#1 6055551#0"/>
    </vehicle>
	<vehicle id="35" depart="0.00">
        <route edges="50511365#4 50511365#6 -130788227#3 -130788227#1 -421037430#2 -155011691#1 155011691#0 50710195#0 50710195#2"/>
    </vehicle>
	<vehicle id="36" depart="0.00">
        <route edges="6057204#0 985426725#0 985426724 468436769#0 6056069#0 589533583#0 589533584#0 695842776#0 695842776#1 520537745 466349883 583705855 469165475"/>
    </vehicle>
	<vehicle id="37" depart="0.00">
        <route edges="130285088#0 469165485#0 442066186#0 353283534#0 353283534#1 323742931 126303364 323742932 -126303366#1 469165486#0 469165487 469165488#0 590581668#0 590581668#2 1049842802#0 1049842803 1049842804 589539534#0 1049287312#0 1049287312#2 126303354#0 126303354#2 345709542#0 1048676964#0 298848145#0 130285121#0 508158271 508158272#0 130889749#0 130889749#2 397316524#0 -397316522 -298814317#2 468433794 397319278#0 298814316 454817812 146537575#0 397319276 297456132#0 397324964#0 397324962 146537578#0 -297294789#2 297294789#0"/>
    </vehicle>
	<vehicle id="38" depart="0.00">
        <route edges="130889758#12 696806633#0 696806633#2 590605528#0 590605528#2 590605528#3 696737929#0 696737929#1 696737929#2 130802360#0 130802360#1 469159255 353283535#0 353283535#2 469159257#0 469159256#0 469159256#3 469159259 469159258#0 469159258#1 469159258#2 468469919#0 468469927#0 468469927#2 460536376#0 468469923#0 468469931#0 468469935#0 468469935#2 468469943#0 468469939#0 468469946#0 200019461#0 435424520#0 -420781368#1 -920893151#1 -6057581#6 -6057581#5 -6057581#4 -6057581#3 -6057581#2 -6057581#1 954271698#0 988196201#0 6057595#0 -202992519#2 -468441158#1 -468441885#1 -468441884 -120478695#4 -120478695#3 -120478695#2 -130908059#2 -131052512#5 -131052512#3 -131052512#2 -131052512#1"/>
    </vehicle>
	<vehicle id="39" depart="0.00">
        <route edges="-202992524#7 29961183#4 297382770#0 297382770#3 333922526#0 333922526#2 347003329#0 333922765#0 397317310#0 397319276"/>
    </vehicle>
	<vehicle id="40" depart="0.00">
        <route edges="347003226 521200399 468433791#0 347003227 756406654#0 347003228#0 347003229#0 347003229#2 589551073#0 1051018092#0 345633934 1051018093#0 589539535#0 589533502#0 469165486#0 469165487 469165488#0 -469165489#1 -469165490#1 -537114618#10 -537114618#8 -537114618#5 -537114618#4 -537114618#2 -537114618#1 -468434115#1 -923370378#11 -923370378#9 -923370378#7 -923370378#6 -923370378#4 -923370378#2 923370378#1"/>
    </vehicle>
	<vehicle id="41" depart="0.00">
        <route edges="436271294#0 409541717 50799606#0 397319279#0 70948803#0 397316176#0 397316171 397316180#0 397316186#0 397316195#0 397316204#0 347003327#0 397327124#0 468433796 397327121#0 347003229#0 347003229#2 131448559#0 520546834#0"/>
    </vehicle>
	<vehicle id="42" depart="0.00">
        <route edges="297380214#0 -26572919#5 397327939#0 397327938 397327933"/>
    </vehicle>
	<vehicle id="43" depart="0.00">
        <route edges="521198982 -521198982 -354202762 50429919 583705854 535520845#0 535520845#1 323742932 -126303366#1 469165486#0 469165487 469165488#0 590581668#0 590581668#2 1049842802#0 1049842803 1049842804 589539534#0 1049287312#0 1049287312#2 126303354#0 126303354#2 345709542#0 1048676964#0 298848145#0 130285121#0 508158271 508158272#0 130889749#0 130889749#2 397316524#0 -397316522 347003330#4 589533563#0 589539518#0 589539518#2 297380210#0 297380210#2 -297380214#6 -297380214#2 -397329572#1 -397329570 -397329575#1 -130908059#2 -131052512#5"/>
    </vehicle>
	<vehicle id="44" depart="0.00">
        <route edges="-130788227#3 130788227#2 -50511365#7 -50511365#4 -50511365#3 -50511365#2 -50511365#1 -50511365#0 131520273"/>
    </vehicle>
	<vehicle id="45" depart="0.00">
        <route edges="-961869114#1 -438958617#11 345633935#7 888235719#0 888235719#3 589533517#0 589533517#2 589533517#3 696806637#0 435106239#0 469154542 6057417#0 6056366#0 131463018#0"/>
    </vehicle>
	<vehicle id="46" depart="0.00">
        <route edges="-297294791#2 297294791#0 297294792#0 589905511#0 120478695#0 120478695#3 120478695#4 120478695#5 468441885#0 468441885#2 202992519#0 -6057595#2 29961175#0 155011691#0 6056532#0 6057581#0 6057581#2 6057581#3 6057581#4 6057581#5 6057581#6 920893151#0 420781368#0 435424521#0 308739814#0 435424522#0 435424522#2 435424522#4 48018661#0 130772931#1 575569268 130772928#0 121863780#0 121863780#1 988487224#0 48018630 988487225#0 130889704#0 130889704#1 837279711#0 -468433798#1 -468433799#1 -468433799#0 -468433800"/>
    </vehicle>
	<vehicle id="47" depart="0.00">
        <route edges="-347003330#6 -298814317#2 468433794 421734517#0"/>
    </vehicle>
	<vehicle id="48" depart="0.00">
        <route edges="-131052512#2 131052512#2 131052512#3 131052512#4 130908059#0 120478695#0 120478695#3 120478695#4 120478695#5 -382850737#1 -130802359#2 -130802359#1"/>
    </vehicle>
	<vehicle id="49" depart="0.00">
        <route edges="468469939#0 468469946#0 200019461#0 435424520#0 -420781368#1 -920893151#1 -6057581#6 -6057581#5 -6057581#4 -6057581#3 -6057581#2 -6057581#1 954271698#0 988196201#0 6057595#0 -202992519#2 -468441158#1 -468441885#1 -468441884 -120478695#4 -120478695#3 -120478695#2 -130908059#2 -131052512#5 -131052512#3 131052512#3"/>
    </vehicle>
	<vehicle id="50" depart="0.00">
        <route edges="-130802376#2 -397321701#2 397321701#0 130802376#0 589551086#0 29961175#0 155011691#0 50710195#0 50710195#2 297296762#0 -292148140#4 -6063421#5 -6063421#3 -6063421#2 6063421#2"/>
    </vehicle>
	<vehicle id="51" depart="0.00">
        <route edges="298829677#0 70948803#0 397316176#0 397316171 397316180#0 397316186#0 397316195#0 397316204#0 74100353#0 508158273 508158270#0 421268132#0 439875857#0 590598870#0 509326776#0 650605162 6062204 -6062204 6062876#0"/>
    </vehicle>
	<vehicle id="52" depart="0.00">
        <route edges="468433793#0 354079210 468433792#0 347003228#0 347003229#0 347003229#2 589551073#0 1051018092#0 345633934 1051018093#0 589539535#0 589533502#0 468434122#0 468434122#2 695842775 469157093 469157092 1048252755#0 589533511 354436361#0 354436361#1"/>
    </vehicle>
	<vehicle id="53" depart="0.00">
        <route edges="130889761 583698434 583698432 520537744 520537746 583705854 535520845#0 535520845#1 535520845#2 352412093#0 -352412093#2"/>
    </vehicle>
	<vehicle id="54" depart="0.00">
        <route edges="888235719#0 888235719#3 50797098#0 50797098#3 50797098#6 50797098#8 130889756#7 130889757#0 698748857#0 589539536#0 589539536#2 589539536#3 589539536#4 590581668#0 590581668#2 1049842802#0 1049842803 1049842804 589539534#0 1049287312#0 1049287312#2 126303354#0 126303354#2 345709542#0 1048676964#0 298848145#0 1047793071 298814315#0 508158270#0 421268132#0 439875857#0 590598870#0 509326776#0 650605162 6062204 988196201#0 6057595#0 202992520#2 202992520#3 202992520#5 202992520#7 202992520#8"/>
    </vehicle>
	<vehicle id="55" depart="0.00">
        <route edges="1033847614#3 1033847615#0 888235719#0 888235719#3 50797098#0 50797098#3 50797098#6 50797098#8 130889756#7 130889757#0 698748857#0 589539536#0 589539536#2 589539536#3 589539536#4 590581668#0 590581668#2 1049842802#0 1049842803 1049842804 589539534#0 1049287312#0 1049287312#2 126303354#0 126303354#2 345709542#0 1048676964#0 298848145#0 1047793071 298814315#0 508158270#0 421268132#0 439875857#0 590598870#0 321444898 321444899#0 130788192#0 130788195 -435424521#1"/>
    </vehicle>
	<vehicle id="56" depart="0.00">
        <route edges="421075190#2 421075190#3 543909823#0 985426725#0 985426724 468436769#0 6056069#0 589533583#0 589533584#0 695842776#0 695842776#1 520537745 466349883 583705855 469165475 130802360#0 130802360#1 469159255 466359342#0 466359342#3 -983121553#5 -983121553#2 983121553#2"/>
    </vehicle>
	<vehicle id="57" depart="0.00">
        <route edges="130908289#5 130908289#6 130908289#7 50797098#3 50797098#6 50797098#8 130889756#7 130889757#0 698748857#0 589539536#0 589539536#2 589539536#3 589539536#4 590581668#0 590581668#2 1049842802#0 1049842803 1049842804 589539534#0 1049287312#0 1049287312#2 126303354#0 126303354#2 345709542#0 1048676964#0 298848145#0 1047793071 298814315#0 508158270#0 421268132#0 439875857#0 590598870#0 509326776#0 650605162 6062204 988196201#0 6057595#0 202992520#2 202992520#3 520468342 520468343#0"/>
    </vehicle>
	<vehicle id="58" depart="0.00">
        <route edges="47471725#0 -130802371#2 -397303092#2 -397303090#1 -175873836#2 130802372#0 130802372#3 589551073#0 1051018092#0 345633934 1051018093#0 589539535#0 589533502#0 468434122#0 468434122#2 695842775 469157093 469157092 1048252755#0 589533511 520537739 -421076402 50429928 509325916 476103804 476103801 321477125#6"/>
    </vehicle>
	<vehicle id="59" depart="0.00">
        <route edges="468433799#0 -468433799#0 -468433800 -468433803 -468433804 -298832254#2 -476103809#1 -520532363 520532349#0 49999717#0"/>
    </vehicle>
</routes>
