<?xml version="1.0" encoding="UTF-8"?>

<!-- generated on 2022-10-26 03:16:04 by Eclipse SUMO duarouter Version 1.10.0
	<routes>

    <input>
        <net-file value="/Users/nafiulhassan/veins-5.1/examples/veins/input/washingtondc/30/washingtondc.net.xml"/>
        <route-files value="/Users/nafiulhassan/veins-5.1/examples/veins/input/washingtondc/seed-23/30/washingtondc.trips.xml"/>
    </input>

    <output>
        <output-file value="/Users/nafiulhassan/veins-5.1/examples/veins/input/washingtondc/seed-23/30/washingtondc.rou.xml"/>
        <alternatives-output value="/Users/nafiulhassan/veins-5.1/examples/veins/input/washingtondc/seed-23/30/washingtondc.rou.alt.xml"/>
    </output>

    <report>
        <ignore-errors value="true"/>
    </report>

</configuration>
-->

	<routes>
	<vehicle id="0" depart="0.00">
        <route edges="6058793#0 -6058793#2 589533502#0 126303366#0 126303365 6058797 520537749-AddedOnRampEdge 520537749 466359342#0 466359342#3 454815093#0 696806633#0 696806633#2 590605528#0 590605528#2 590605528#3 696737929#0"/>
    </vehicle>
	<vehicle id="1" depart="0.00">
        <route edges="6054151#0 -296786737#1 -305660797#2"/>
    </vehicle>
	<vehicle id="2" depart="0.00">
        <route edges="420781368#0 -420781368#1 -920893151#1 -6057581#6 -6057581#5 -6057581#4 -6057581#3 -6057581#2 -6057581#1 954271698#0 988196201#0 6057595#0 -202992519#2 -468441158#1 -468441885#1 -468441884 -120478695#4 -120478695#3 -120478695#2 -130908059#2 -131052512#5 131052512#4"/>
    </vehicle>
	<vehicle id="3" depart="0.00">
        <route edges="352412039#0 521200399 468433791#0 347003227 756406654#0 -468433792#1 -354079210 -468433793#1 -130927087#2 130889749#0 130889749#2 397316524#0 -397316522 347003330#4 589533563#0 589539518#0 589539518#2 297380210#0 297380210#2 589539537#0 397327934#0 397327932#0 397327939#0 397327938 -397327938 -397327939#1"/>
    </vehicle>
	<vehicle id="4" depart="0.00">
        <route edges="-47916243#1 -120478419#1 -120478694#2 120478694#0 535718852#0 45838763#0 397316203#0 468450576#0 397319283 397319278#0 298814316 454817812 146537575#0 397319276 297456132#0 397324964#0 397324962 203025090#0"/>
    </vehicle>
	<vehicle id="5" depart="0.00">
        <route edges="-520463951#1 520463951#0 520463951#2 479469615#0 535546520#0 535546520#3 347003226 521200399 468433791#0 347003227 756406654#0 347003228#0 347003229#0 347003229#2 589551073#0 1051018092#0 345633934 1051018093#0 589539535#0 589533502#0 469165486#0 469165487 469165488#0 -469165489#1 -469165490#1 -537114618#10 -537114618#8 -537114618#5 -537114618#4 -537114618#2 -537114618#1 -468434115#1 -923370378#11 923370378#10 468434115#0 26707982#0"/>
    </vehicle>
	<vehicle id="6" depart="0.00">
        <route edges="-130907982#1 509326344#0 6054254#0 50431292#0 6057417#0 6056366#0 6056366#3 130889756#0 130889756#3 130889756#5 130889756#7 130889757#0 698748857#0 589539536#0 589539536#2 589539536#3 589539536#4 590581668#0 590581668#2 1049842802#0 1049842803 1049842804 589539534#0 1049287312#0 1049287312#2 126303354#0 126303354#2 345709542#0 1048676964#0 298848145#0 1047793071 298814315#0 508158270#0 421268132#0 439875857#0 590598870#0 321444898 -321444898"/>
    </vehicle>
	<vehicle id="7" depart="0.00">
        <route edges="47916247#0 -47916247#1 -297296749#2 297296762#0 131052515 131052508#0 131052508#2 131052508#3 131052508#4"/>
    </vehicle>
	<vehicle id="8" depart="0.00">
        <route edges="323742931 126303364 535520845#2 352412093#0 -438964977 -466359338#3 -466359338#1 469159256#0 469159256#3 469159259 -436136927#4 -436136927#2 -436136927#1 1036008539 50008440"/>
    </vehicle>
	<vehicle id="9" depart="0.00">
        <route edges="130772943#2 509326253#0 687108617#0 435106239#0 469154542 6057417#0 6056366#0 6056366#3 130889756#0 130889756#3 130889756#5 130889756#7 130889757#0 698748857#0 589539536#0 589539536#2 589539536#3 589539536#4 590581668#0 590581668#2 1049842802#0 1049842803 1049842804 589539534#0 1049287312#0 1049287312#2 126303354#0 126303354#2 345709542#0 1048676964#0 298848145#0 130285121#0 508158271 508158272#0 50260020#0 50260020#2 50260020#4 50260020#6 -297382770#5 -297382770#2 297382769#0 297382769#4 130802359#0 130802359#2 470165122 -468441884 -120478695#4 -120478695#3 -514191883#2 -514191882#1 -296365351#6 -296365351#5 -296365351#4 -296365351#2"/>
    </vehicle>
	<vehicle id="10" depart="0.00">
        <route edges="509325421 50799689#0 -321444900 -648026207#1 -333922462#1 -297382770#5 -297382770#2 397321704#0 397321703#0 -397329578#2 -397329580#1 -6054886#1 -397329577#1 397329577#0"/>
    </vehicle>
	<vehicle id="11" depart="0.00">
        <route edges="468434113#2 50524890#5 6061544 -589533512#0 696806632#0 130908291#0 1049226224#0 1049226223#0 1049226223#1 696737929#0 696737929#1 696737929#2 130802360#0 130802360#1 469159255 353283535#0 353283535#2 469159257#0 469159256#0 469159256#3 469159259 436136927#5"/>
    </vehicle>
	<vehicle id="13" depart="0.00">
        <route edges="50511365#2 50511365#3 50511365#4 50511365#6 -130788227#3 -130788227#1 -421037430#2 6056532#0 6057581#0 6057581#2 6057581#3 6057581#4 6057581#5 6057581#6 920893151#0 420781368#0 435424521#0 130788190 -130788190 -130788195 130788195"/>
    </vehicle>
	<vehicle id="14" depart="0.00">
        <route edges="397324962 297368443#0 146537579#0 130285135#0 397319284#0 397319281#0 421734517#0 298814317#0 -347003330#3 347003328#0 -397303092#2 -397303090#1 -175873836#2 130802372#0 130802372#3 589551073#0 468433806#0 468433805 438960035#0 130908282 468433804"/>
    </vehicle>
	<vehicle id="15" depart="0.00">
        <route edges="1049253134 45839048#0 50511237#0 297296770#0 6056532#0 45838762#1 971624710 6062876#0 509325421 50799689#0 -321444900 321444900 321444898 -321444898"/>
    </vehicle>
	<vehicle id="16" depart="0.00">
        <route edges="297380211#0 514191883#0 120478695#3 120478695#4 120478695#5 468441885#0 468441885#2 202992519#0 -6057595#2 -988196201#2 -6062204 6062876#0 509325421 468450542 130285122#0 126303355#0 -756406654#1 -347003227 -468433791#1 -521200399 47920785#0"/>
    </vehicle>
	<vehicle id="17" depart="0.00">
        <route edges="409551582 50009629#0 48018648#0 468469915#0 468469915#1 130772931#1 575569268 130772928#0 121863780#0 121863780#1 988487224#0 48018630 988487225#0 130889704#0 130889704#1 837279711#0 837279711#2 837279711#4 1051205229#0 1051205229#1 130889702#0 130889702#3 130889702#4 1052908775#0 130889705#0 130889705#2 697824964#0 454815093#0 696806633#0 696806633#2 590605528#0 590605528#2 590605528#3 466359339#0 466359339#1 503185211 -203119343 203119343"/>
    </vehicle>
	<vehicle id="18" depart="0.00">
        <route edges="466359338#2 438964977 130908283#0 -130908283#0 -352411913#1 -354202945#1 476103809#0 298832254#0 298832261#0 126303356#0 476103811 476103813#0 298815729#0 352412039#0 47920785#0 352412073 509646034#0 434444693#0 130788155#0 131520206#0 650605162 6062204 988196201#0 29961175#0 468469890#0 468469890#2 -296355738#2 -296355738#0 -468469887 -468469894#1 -468469897#1 -468469900#4 -468469900#1 -468469900#0"/>
    </vehicle>
	<vehicle id="19" depart="0.00">
        <route edges="-468469890#1 155011691#0 6056532#0 45838762#1 971624710 6062876#0 509325421 468450542 130285122#0 126303355#0 347003228#0 347003229#0 347003229#2 589551073#0 1051018092#0 345633934 1051018093#0 589539535#0 6058793#0 1049842802#0 1049842803 1049842804"/>
    </vehicle>
	<vehicle id="20" depart="0.00">
        <route edges="521198982 -521198982 -354202762 466349883 583705855 469165475 130802360#0 130802360#1 469159255 353283535#0 353283535#2 469159257#0 469159256#0 469159256#3 469159259 469159258#0 469159258#1 469159258#2 468469919#0 468469927#0 468469927#2 460536376#0 468469923#0 468469931#0 468469935#0 468469935#2 468469943#0 468469939#0 468469946#0 200019461#0 435424520#0 -420781368#1 -920893151#1 -6057581#6 -6057581#5 -6057581#4 -6057581#3 -6057581#2 -6057581#1 -6056532#2 421037430#0 -47916247#4 -47916247#2 -47916247#1"/>
    </vehicle>
	<vehicle id="21" depart="0.00">
        <route edges="-397316195#1 -397316186#1 397316186#0 397316195#0 397316204#0 74100353#0 508158273 508158270#0 468433793#0 354079210 468433792#0 -756406654#1 -347003227 -468433791#1 -521200399 -352412039#1"/>
    </vehicle>
	<vehicle id="22" depart="0.00">
        <route edges="-202992520#4 -202992520#2 -6057595#2 -988196201#2 -6062204 6062876#0 509325421 468450542 130285122#0 126303355#0 347003228#0 347003229#0 347003229#2 589551073#0 1051018092#0 345633934 1051018093#0 6060903#0 -6060903#1"/>
    </vehicle>
	<vehicle id="23" depart="0.00">
        <route edges="397324964#0 397324962 297368443#0 146537579#0 130285135#0 397319284#0 397319281#0 421734517#0 298814317#0 397316523#0 -397316524#1 -130889749#2 -130889749#1 130927087#0 468433793#0 354079210 468433792#0 -756406654#1 -347003227 -468433791#1 -521200399 521200399"/>
    </vehicle>
	<vehicle id="24" depart="0.00">
        <route edges="120478694#0 535718852#0 45838763#0 397316203#0 70948803#0 397316176#0 397316171 397316180#0 397316186#0 397316195#0 397316204#0 74100353#0 508158273 508158270#0 421268132#0 439875858#1 439875858#4 439875858#6 439875858#8 516085385 509646035#0 509646035#2 130788204#0"/>
    </vehicle>
	<vehicle id="25" depart="0.00">
        <route edges="-923370378#11 923370378#10 468434115#0 537114618#0 537114618#2 537114618#3 537114618#5 537114618#6 537114618#9 469165490#0 469165490#2 590581668#0 590581668#2 1049842802#0 1049842803 1049842804 589539534#0 1049287312#0 1049287312#2 126303354#0 126303354#2 345709542#0 1048676964#0 298848145#0 1047793071 298814315#0 508158270#0 421268132#0 439875857#0 590598870#0 509326776#0 650605162 6062204 988196201#0 -988196201#2"/>
    </vehicle>
	<vehicle id="26" depart="0.00">
        <route edges="50799230#7 -50799230#8 -50799230#6 -50799230#5 -50799230#2 -50799230#1 6057204#0 985426725#0 985426724 468436769#0 6056069#0 589533583#0 589539536#0 589539536#2 589539536#3 589539536#4 590581668#0 590581668#2 1049842802#0 1049842803 1049842804 589539534#0 1049287312#0 1049287312#2 126303354#0 126303354#2 175873836#0 397303090#0 397303092#0"/>
    </vehicle>
	<vehicle id="27" depart="0.00">
        <route edges="-6055383#2 130889755#0 130889756#0 130889756#3 130889756#5 130889756#7 130889757#0 698748857#0 589539536#0 589539536#2 589539536#3 589539536#4 590581668#0 590581668#2 1049842802#0 1049842803 1049842804 589539534#0 1049287312#0 1049287312#2 126303354#0 126303354#2 175873836#0 397303090#0 397303092#0 -397303092#2"/>
    </vehicle>
	<vehicle id="28" depart="0.00">
        <route edges="509325914 50429928 509325916 476103804"/>
    </vehicle>
	<vehicle id="29" depart="0.00">
        <route edges="537114618#6 537114618#9 469165490#0 469165490#2 590581668#0 590581668#2 1049842802#0 1049842803 1049842804 589539534#0 1049287312#0 1049287312#2 126303354#0 126303354#2 345709542#0 1048676964#0 298848145#0 1047793071 298814315#0 508158270#0 421268132#0 439875857#0 590598870#0 321444898 321444899#0 130788192#0 130788195 130788190 125568108#0 125568108#2 125568108#3 575569267#11 575569267#13 -575569267#14"/>
    </vehicle>
</routes>
