<?xml version="1.0" encoding="UTF-8"?>

<!-- generated on 2022-10-26 03:15:56 by Eclipse SUMO duarouter Version 1.10.0
	<routes>

    <input>
        <net-file value="/Users/nafiulhassan/veins-5.1/examples/veins/input/washingtondc/30/washingtondc.net.xml"/>
        <route-files value="/Users/nafiulhassan/veins-5.1/examples/veins/input/washingtondc/seed-21/30/washingtondc.trips.xml"/>
    </input>

    <output>
        <output-file value="/Users/nafiulhassan/veins-5.1/examples/veins/input/washingtondc/seed-21/30/washingtondc.rou.xml"/>
        <alternatives-output value="/Users/nafiulhassan/veins-5.1/examples/veins/input/washingtondc/seed-21/30/washingtondc.rou.alt.xml"/>
    </output>

    <report>
        <ignore-errors value="true"/>
    </report>

</configuration>
-->

	<routes>
	<vehicle id="0" depart="0.00">
        <route edges="-468433796 468433796 397327121#0 347003229#0 347003229#2 589551073#0 1051018092#0 345633934 1051018093#0 589539535#0 589533502#0 469165486#0 469165487 469165488#0 -469165489#1 -469165490#1 -537114618#10 -537114618#8 -537114618#5 -537114618#4 -537114618#2 6062881#0 985067151 130285133#0-AddedOnRampEdge 130285133#0 6056363#0 6056363#2 6056363#3 130889760#0 131463018#0 509326252#0 469154543"/>
    </vehicle>
	<vehicle id="1" depart="0.00">
        <route edges="45838766#1 297294789#0 494175930#0 29961168#0 397321700#0 131052297#3 26572919#0 26572919#3 297380214#3 -297380210#3 297380210#2"/>
    </vehicle>
	<vehicle id="2" depart="0.00">
        <route edges="-509645504#3 509645504#2 297444228#0 297759292#0 297759292#1 409546597 130285135#0 397319284#0 397319281#0 436271294#0 409541717 50799606#0 397319279#0 397319282#0 397319286#0 -305368640#1 -998360408#3 -998360408#0 -397304550 -120478418#2 6055551#0 923370378#0 923370378#1 6054252#0 6054252#2 130889684#0 509326252#0 296971737#0 -130907982#1 509326344#0"/>
    </vehicle>
	<vehicle id="4" depart="0.00">
        <route edges="321444902#0 439875858#1 126303355#0 347003228#0 347003229#0 347003229#2 589551073#0 1051018092#0 345633934 1051018093#0 589539535#0 589533502#0 468434122#0 468434122#2 695842775 469157093 469157092 468434120#0 543909823#0 -543909823#1"/>
    </vehicle>
	<vehicle id="5" depart="0.00">
        <route edges="-120478695#2 120478695#0 120478695#3 120478695#4 120478695#5 468441885#0 468441885#2 202992519#0 -6057595#2 29961175#0 155011691#0 6056532#0 6057581#0 6057581#2 6057581#3 6057581#4 6057581#5 6057581#6 920893151#0 420781368#0 435424521#0 308739814#0 435424522#0 130788207#0 130788207#2 130788207#4"/>
    </vehicle>
	<vehicle id="6" depart="0.00">
        <route edges="397354452#0 6056366#0 6056366#3 130889756#0 130889756#3 130889756#5 130889756#7 130889757#0 698748857#0 589539536#0 589539536#2 589539536#3 589539536#4 590581668#0 590581668#2 1049842802#0 1049842803 1049842804 589539534#0 1049287312#0 1049287312#2 126303354#0 126303354#2 345709542#0 1048676964#0 298848145#0 130285121#0 508158271 508158272#0 50260020#0 50260020#2 50260020#4 50260020#6 -297382770#5 -297382770#2 297382769#0 297382769#4 130802359#0 130802359#2 470165122 -468441884 -120478695#4 -120478695#3 -514191883#2 -297380211#3"/>
    </vehicle>
	<vehicle id="7" depart="0.00">
        <route edges="509646035#2 200019461#0 -130788192#2 -321444899#2 130285122#0 126303355#0 347003228#0 347003229#0 347003229#2 589551073#0 1051018092#0 345633934 1051018093#0 589539535#0 589533502#0 469165486#0 469165487 469165488#0 -469165489#1 -469165490#1 -537114618#10 -537114618#8 -537114618#5 -537114618#4 -537114618#2 -537114618#1"/>
    </vehicle>
	<vehicle id="8" depart="0.00">
        <route edges="-537114618#2 537114618#2 537114618#3 537114618#5 537114618#6 537114618#9 469165490#0 469165490#2 590581668#0 590581668#2 1049842802#0 1049842803 1049842804 589539534#0 1049287312#0 1049287312#2 126303354#0 126303354#2 345709542#0 1048676964#0 298848145#0 1047793071 298814315#0 508158270#0 421268132#0 439875857#0 590598870#0 509326776#0 252140542#0 -202992524#7 -202992524#4 -202992524#2 -202992522#3"/>
    </vehicle>
	<vehicle id="9" depart="0.00">
        <route edges="998338690#0 998338690#6 47916249#0 45838762#1 971624710 6062876#0 509325421 50799689#0 -321444900 -648026207#1 -333922462#1 -50260020#7 -50260020#5 -50260020#3 50260020#2"/>
    </vehicle>
	<vehicle id="10" depart="0.00">
        <route edges="589551086#0 29961175#0 155011691#0 6056532#0 6057581#0 6057581#2 6057581#3 6057581#4 6057581#5 6057581#6 920893151#0 420781368#0 435424521#0 130788190 -130788190 -130788195 435424520#0"/>
    </vehicle>
	<vehicle id="11" depart="0.00">
        <route edges="-131052512#5 131052512#4 130908059#0 120478695#0 120478695#3 120478695#4 120478695#5 468441885#0 468441885#2 202992519#0 -6057595#2 29961175#0 155011691#0 6056532#0 6057581#0 6057581#2 6057581#3 6057581#4 6057581#5 6057581#6 920893151#0 420781368#0 435424521#0 308739814#0 435424522#0 435424522#2 435424522#4 48018661#0 130772931#1 575569268 130772928#0 121863780#0 121863780#1 988487224#0 48018630 988487225#0 130889704#0 130889704#1 837279711#0 837279711#2 837279711#4 1051205229#0 1051205229#1 130889702#0 130889702#3 1052908774#0"/>
    </vehicle>
	<vehicle id="12" depart="0.00">
        <route edges="29961175#0 -29961175#1 -988196201#2 -6062204 6062876#0 509325421 50799689#0 321444902#0 321444902#3 -130927087#2 130889749#0 130889749#2 397316524#0 -397316522"/>
    </vehicle>
	<vehicle id="13" depart="0.00">
        <route edges="696806633#2 590605528#0 590605528#2 590605528#3 696737929#0 696737929#1 696737929#2 130802360#0 130802360#1 469159255 353283535#0 353283535#2 469159257#0 469159256#0 469159256#3 469159259 469159258#0 469159258#1 469159258#2 468469919#0 468469927#0 468469927#2 460536376#0 468469923#0 468469931#0 468469935#0 468469935#2 468469943#0 468469939#0 468469946#0 200019461#0 130788195"/>
    </vehicle>
	<vehicle id="14" depart="0.00">
        <route edges="-438958617#6 438958617#6 438958617#7 438958617#9 961869114#0 496467785#0 985426724 468436769#0 6056069#0 589533583#0 589539536#0 589539536#2 589539536#3 589539536#4 -469165488#1 -469165487 -469165486#1 126303366#0 126303365 6058797 520537749-AddedOnRampEdge"/>
    </vehicle>
	<vehicle id="15" depart="0.00">
        <route edges="-397327121#1 -468433796 468433796 397327121#0 347003229#0 347003229#2 589551073#0 1051018092#0 345633934 1051018093#0 589539535#0 589533502#0 469165486#0 469165487 469165488#0 -469165489#1 -469165490#1 -537114618#10 -537114618#8 -537114618#5 -537114618#4 -537114618#2 6062881#0 985067151 130285133#0-AddedOnRampEdge 130285133#0 6056363#0 6056363#2 6056363#3 203119341#0 696806636#0 696806637#0 130908292#0 130908292#2 130908292#3 -6053702#4 -6053702#2 -6053702#1 469151751 423602319#0 6059056#0 6059056#2"/>
    </vehicle>
	<vehicle id="16" depart="0.00">
        <route edges="296355738#0 296355738#1 -468469890#3 -468469890#1 155011691#0 6056532#0 45838762#1 971624710 6062876#0 509325421 50799689#0 -321444900 -648026207#1 -333922462#1 333922526#0 333922526#2 347003329#0 333922765#0 397317310#0 397319284#0 -24238018#5 -24238018#1 -397315034#1 -397315035#2 397315035#2"/>
    </vehicle>
	<vehicle id="17" depart="0.00">
        <route edges="126303361#0 -126303361#1 -421077027 -723610179 -468433795#1 -203119342#1 -397327121#1 -468433796 -397327124#1 298848145#0 130285121#0 508158271 508158272#0 50260020#0 50260020#2 50260020#4 50260020#6 -297382770#5 -297382770#2 297382770#0"/>
    </vehicle>
	<vehicle id="18" depart="0.00">
        <route edges="-469165490#1 469165490#0 469165490#2 590581668#0 590581668#2 1049842802#0 1049842803 1049842804 589539534#0 1049287312#0 1049287312#2 126303354#0 126303354#2 345709542#0 1048676964#0 298848145#0 1047793071 298814315#0 508158270#0 421268132#0 439875857#0 590598870#0 509326776#0 650605162 6062204 988196201#0 6057595#0 -202992519#2"/>
    </vehicle>
	<vehicle id="19" depart="0.00">
        <route edges="589539519#2 589539520#0 -333922526#3 -333922526#1 -50260020#7 -50260020#5 -50260020#3 -50260020#1 130927087#0 468433793#0 354079210 468433792#0 347003228#0 347003229#0 347003229#2 589551073#0 1051018092#0 345633934 1051018093#0 589539535#0 589533502#0 469165486#0 469165487 469165488#0 -469165489#1 -469165490#1 -537114618#10 -537114618#8 -537114618#5"/>
    </vehicle>
	<vehicle id="20" depart="0.00">
        <route edges="508158270#0 421268132#0 439875857#0 590598870#0 509326776#0 650605162 6062204 988196201#0 29961175#0 155011691#0 421037430#0 130788227#0 130788227#2 -50511365#7 -50511365#4"/>
    </vehicle>
	<vehicle id="21" depart="0.00">
        <route edges="920893151#0 397327118#0 131520206#0 509325421 468450542 130285122#0 126303355#0 347003228#0 347003229#0 347003229#2 589551073#0 1051018092#0 345633934 1051018093#0 589539535#0 589533502#0 469165486#0 469165487 469165488#0 -469165489#1 -469165490#1 -537114618#10 -537114618#8 -537114618#5 -537114618#4 -537114618#2 6062881#0 985067151 130285133#0-AddedOnRampEdge 130285133#0 6056363#0 6056363#2 6056363#3 203119341#0 696806636#0 696806637#0 130908292#0 130908292#2 130908292#3 -6053702#4 6053702#3"/>
    </vehicle>
	<vehicle id="22" depart="0.00">
        <route edges="50431289 130772943#0 130772943#1 130772943#2 509326253#0 687108617#0 435106239#0 469154542 6057417#0 6056366#0 6056366#3 130889756#0 130889756#3 130889756#5 130889756#7 130889757#0 698748857#0 589539536#0 589539536#2 589539536#3 589539536#4 590581668#0 590581668#2 1049842802#0 1049842803 1049842804 589539534#0 1049287312#0 1049287312#2 126303354#0 126303354#2 345709542#0 1048676964#0 298848145#0 1047793071 298814315#0 508158270#0 421268132#0 439875857#0 590598870#0 509326776#0 650605162 6062204 988196201#0 29961175#0 155011691#0 50710195#0 50710195#2 297296749#0 -466352083#1 -50511365#1 50511365#1"/>
    </vehicle>
	<vehicle id="23" depart="0.00">
        <route edges="397327939#0 397327938 -397327938 -397327939#1 26572919#3 297380214#3 -297380210#3 -297380210#1 -589539518#3 -589539518#1 -589533563#2 -347003330#6 -347003330#3 347003328#0 -397303092#2 -397303090#1 -175873836#2 130802372#0 130802372#3 589551073#0 1051018092#0 345633934 1051018093#0 589539535#0 589533502#0 468434122#0 468434122#2 695842775 469157093 469157092 468434120#0 345633936#0 49887645#0"/>
    </vehicle>
	<vehicle id="24" depart="0.00">
        <route edges="-397321700#2 -29961168#2 297368443#0"/>
    </vehicle>
	<vehicle id="25" depart="0.00">
        <route edges="537114618#3 537114618#5 537114618#6 537114618#9 469154540#0 26707840#0 698748856#0 468436770 130285136#0 696806631#0 -496467787#1"/>
    </vehicle>
	<vehicle id="26" depart="0.00">
        <route edges="6057813#0 297380211#7 590581593#0 590581593#2 590581593#4 -202992520#4 -202992520#2 -6057595#2 29961175#0 155011691#0 6056532#0 6057581#0 6057581#2 6057581#3 6057581#4 6057581#5 6057581#6 920893151#0 420781368#0 435424521#0 308739814#0 435424522#0 435424522#2 435424522#4 48018661#0 130772931#1 575569268 130772928#0 121863780#0 121863780#1 988487224#0 48018630 988487225#0 130889704#0 130889704#1 837279711#0 837279711#2 837279711#4 1051205229#0 1051205229#1 130889702#0 130889702#3 130889702#4 1052908775#0 130889705#0 130889705#2 697824964#0 454815093#0 696806633#0 696806633#2 590605528#0 590605528#2"/>
    </vehicle>
	<vehicle id="27" depart="0.00">
        <route edges="130927087#0 468433793#0 354079210 468433792#0 347003228#0 347003229#0 347003229#2 589551073#0 1051018092#0 345633934 1051018093#0 589539535#0 589533502#0 468434122#0 468434122#2 695842775 469157093 469157092 468434120#0 345633936#0 466349886#0 466349886#2 466349886#3 -130788158#1 -469165494 469165494 130788158#0"/>
    </vehicle>
	<vehicle id="28" depart="0.00">
        <route edges="292148139#0 -202992520#2 -6057595#2 29961175#0 155011691#0 6056532#0 6057581#0 6057581#2 6057581#3 6057581#4 6057581#5 6057581#6 920893151#0 420781368#0 435424521#0 308739814#0 435424522#0 435424522#2 435424522#4 48018661#0 130772931#1 575569268 130772928#0 121863780#0 121863780#1 988487224#0 48018630 988487225#0 130889704#0"/>
    </vehicle>
	<vehicle id="29" depart="0.00">
        <route edges="988487224#0 48018630 988487225#0 130889704#0 130889704#1 837279711#0 837279711#2 837279711#4 1051205229#0 1051205229#1 130889702#0 130889702#3 130889702#4 1052908775#0 130889705#0"/>
    </vehicle>
</routes>
