<?xml version="1.0" encoding="UTF-8"?>

<!-- generated on 2022-10-26 03:14:34 by Eclipse SUMO duarouter Version 1.10.0
	<routes>

    <input>
        <net-file value="/Users/nafiulhassan/veins-5.1/examples/veins/input/washingtondc/30/washingtondc.net.xml"/>
        <route-files value="/Users/nafiulhassan/veins-5.1/examples/veins/input/washingtondc/seed-0/120/washingtondc.trips.xml"/>
    </input>

    <output>
        <output-file value="/Users/nafiulhassan/veins-5.1/examples/veins/input/washingtondc/seed-0/120/washingtondc.rou.xml"/>
        <alternatives-output value="/Users/nafiulhassan/veins-5.1/examples/veins/input/washingtondc/seed-0/120/washingtondc.rou.alt.xml"/>
    </output>

    <report>
        <ignore-errors value="true"/>
    </report>

</configuration>
-->

	<routes>
	<vehicle id="0" depart="0.00">
        <route edges="583698433#0 -468436769#1 -985426724 421076400#0 1048252755#0 589533511 354436361#0 354436361#1 50429929"/>
    </vehicle>
	<vehicle id="1" depart="0.00">
        <route edges="131076097#0 131076097#1 -297380210#3 -297380210#1 -589539518#3 -589539518#1 -589533563#2 -347003330#6 -347003330#3 347003328#0 -397303092#2 -397303090#1 -175873836#2 130802372#0 130802372#3 589551073#0 1051018092#0 345633934 1051018093#0 589539535#0 589533502#0 469165486#0 469165487 469165488#0 -469165489#1 -469165490#1 -537114618#10 -537114618#8 -537114618#5 -537114618#4 -537114618#2 6062881#0 985067151 130285133#0-AddedOnRampEdge 130285133#0 6056363#0 6056363#2 6056363#3 203119341#0 696806636#0 696806637#0 130908292#0 130908292#2 130908292#3 -6053702#4 -6053702#2 -6053702#1 469151751 -6054355#1"/>
    </vehicle>
	<vehicle id="2" depart="0.00">
        <route edges="323742930#1 323742930#2 925030587 583705856#0 583705856#1 50429925 352412100 130889761 589533582 469157092 468434120#0 345633935#0 345633935#3 345633935#5 345633935#7 888235719#0 888235719#3 50797098#0 130908289#9 130908289#11"/>
    </vehicle>
	<vehicle id="3" depart="0.00">
        <route edges="509325914 -509325914 476103803 323742888 535462247#0 535462247#1 50018069 321477125#3 321477125#4 421075190#1 421075190#2 421075190#3 543909823#0 985426725#0 985426724 468436769#0 -468436769#1 -985426724"/>
    </vehicle>
	<vehicle id="4" depart="0.00">
        <route edges="297380214#0 -26572919#5 397327939#0 397327938 397327933 397327935#0"/>
    </vehicle>
	<vehicle id="5" depart="0.00">
        <route edges="6056363#2 6056363#3 130889760#0 6056366#3 130889756#0 130889756#3 130889756#5 130889756#7 130889757#0 698748857#0 589539536#0 589539536#2 589539536#3 589539536#4 590581668#0 590581668#2 1049842802#0 1049842803 1049842804 589539534#0 1049287312#0 1049287312#2 126303354#0 126303354#2 345709542#0 1048676964#0 298848145#0 1047793071 298814315#0 508158270#0 421268132#0 439875857#0 590598870#0 509326776#0 252140542#0 -202992524#7 29961183#4"/>
    </vehicle>
	<vehicle id="6" depart="0.00">
        <route edges="-698748856#1 698748857#0 589533584#0 695842776#0 695842776#1 520537745 354202762 50429926"/>
    </vehicle>
	<vehicle id="7" depart="0.00">
        <route edges="436136929#2-AddedOnRampEdge 436136929#2 438964977 130908283#0 -130908283#0 -352411913#1 -354202945#1 476103809#0 298832254#0 298832261#0 126303356#0 476103811 476103813#0 298815729#0 352412039#0 47920785#0 352412073 509646034#0 434444693#0 130788155#0 131520206#0 650605162 6062204 988196201#0 6057595#0 202992520#2 202992520#3 -590581593#5 -590581593#3 -590581593#1"/>
    </vehicle>
	<vehicle id="8" depart="0.00">
        <route edges="6056366#0 6056366#3 130889756#0 130889756#3 130889756#5 130889756#7 130889757#0 698748857#0 589533584#0 695842776#0 695842776#1 520537745 466349883 583705855 469165475 130802360#0 130802360#1 469159255 466359342#0 466359342#3 -983121553#5 -983121553#2 -983121553#1 983121553#1"/>
    </vehicle>
	<vehicle id="9" depart="0.00">
        <route edges="520537745 50429919 583705854 535520845#0 535520845#1 323742932 -126303366#1 468434122#0 468434122#2 695842775 469157093 469157092 468434120#0 345633935#0 345633935#3 345633935#5 345633935#7 6054895#0 6054895#2 6054895#3"/>
    </vehicle>
	<vehicle id="10" depart="0.00">
        <route edges="1048676964#0 397327124#0 468433796 397327121#0 347003229#0 347003229#2 589551073#0 1051018092#0 345633934 1051018093#0 589539535#0 589533502#0 468434122#0 468434122#2 695842775 469157093 469157092 468434120#0 345633936#0 49887645#0"/>
    </vehicle>
	<vehicle id="11" depart="0.00">
        <route edges="6054886#0 397329580#0 397329578#0 131076063#0 589539520#0 -333922526#3 -333922526#1 -50260020#7 -50260020#5 -50260020#3 -50260020#1 130927087#0 468433793#0 354079210 468433792#0 -756406654#1 -347003227 -468433791#1 -521200399 -352412039#1 50429905 924793627#0-AddedOnRampEdge 924793627#0 126303361#0 126303361#3 468469935#0"/>
    </vehicle>
	<vehicle id="12" depart="0.00">
        <route edges="297368625#3 297380214#0 297380214#3 -297380210#3 -297380210#1 -589539518#3 -589539518#1 -589533563#2 -347003330#6 -347003330#3 397316186#0 397316195#0 397316204#0 347003327#0 397327124#0 468433796 397327121#0 203119342#0 468433795#0 723610179 -476103813#1 -352412083 -126303356#1 -298832261#2 -298832254#2 -476103809#1 354202945#0 352411913#0 -352412093#2"/>
    </vehicle>
	<vehicle id="13" depart="0.00">
        <route edges="202992522#0 202992522#2 202992524#0 202992524#3 202992524#5 -252140542#2 509325421 468450542 130285122#0 126303355#0 347003228#0 347003229#0 347003229#2 589551073#0 1051018092#0 345633934 1051018093#0 589539535#0 589533502#0 469165486#0 469165487 469165488#0 -469165489#1 -469165490#1 -537114618#10 -537114618#8 -537114618#5 -537114618#4 -537114618#2 6062881#0 985067151 130285133#0-AddedOnRampEdge 130285133#0 6056363#0 6056363#2 6056363#3 130889760#0 131463018#0 6058077#0 583695032 397321711#1 397321711#2 509640269 920636360#0 423607087 1008299672 423608853"/>
    </vehicle>
	<vehicle id="14" depart="0.00">
        <route edges="6057204#0 985426725#0 985426724 468436769#0 6056069#0 589533583#0 589539536#0 589539536#2 589539536#3 589539536#4 590581668#0 590581668#2 1049842802#0 1049842803 1049842804 589539534#0 -469165492#2 -469165492#1 6060903#0 6060903#2 6060903#3 520532363 476103809#0 298832254#0 298832261#0 298832240 864614824#0"/>
    </vehicle>
	<vehicle id="15" depart="0.00">
        <route edges="297380214#3 -297380210#3 -297380210#1 -589539518#3 -589539518#1 -589533563#2 -347003330#6 -347003330#3 347003328#0 -397303092#2 -397303090#1 -175873836#2 130802372#0 130802372#3 589551073#0 1051018092#0 345633934 1051018093#0 589539535#0 589533502#0 469165486#0 469165487 469165488#0 -469165489#1 -469165490#1 469154540#0 26707840#0 698748857#0 589533584#0"/>
    </vehicle>
	<vehicle id="16" depart="0.00">
        <route edges="-6056532#2 6056532#0 6057581#0 6057581#2 6057581#3 6057581#4 6057581#5 6057581#6 920893151#0 420781368#0 435424521#0 308739814#0 435424522#0 435424522#2 435424522#4 -520463951#3 520463951#2"/>
    </vehicle>
	<vehicle id="17" depart="0.00">
        <route edges="397316180#0 397316186#0 397316195#0 397316204#0 347003327#0 397327124#0 468433796 397327121#0 203119342#0 468433795#0 723610179 421077027 126303361#0 126303361#3 126303361#5 130772954 -130772954"/>
    </vehicle>
	<vehicle id="18" depart="0.00">
        <route edges="48018654 -298832235#4 -298832235#3 -298832235#2 -864614823#3 -864614823#1 -298832240 -298832261#2 -298832254#2 -476103809#1 -520532363 -6060903#4 -6060903#2 -6060903#1 589539535#0 589533502#0 469165486#0 469165487 469165488#0 -469165489#1 -469165490#1 -537114618#10 -537114618#8 -537114618#5 -537114618#4 -537114618#2 6062881#0 985067151 130285133#0-AddedOnRampEdge 130285133#0 6056363#0 6056363#2 6056363#3 130889760#0"/>
    </vehicle>
	<vehicle id="19" depart="0.00">
        <route edges="535780677#0 298825115#1 50799606#0 397319279#0 70948803#0 397316176#0 397316171 397316180#0 397316186#0 397316195#0 397316204#0 347003327#0 397327124#0 468433796 397327121#0 347003229#0 347003229#2 589551073#0 1051018092#0 345633934 1051018093#0 589539535#0 589533502#0 468434122#0 468434122#2 695842775 469157093 469157092 468434120#0 543909823#0 985426725#0 985426724 468436769#0"/>
    </vehicle>
	<vehicle id="20" depart="0.00">
        <route edges="-1054351818#1 397303090#0 397303092#0 -347003328#2 347003330#0 -298814317#2 298814317#0"/>
    </vehicle>
	<vehicle id="21" depart="0.00">
        <route edges="589539522#0 -589539522#2 347003329#0 589539518#0 -589539518#1"/>
    </vehicle>
	<vehicle id="22" depart="0.00">
        <route edges="1054351817 -1054351818#1 421259825#0 74100353#0 508158272#0 50260020#0 50260020#2 50260020#4 50260020#6 333922526#0 333922526#2 589539522#0"/>
    </vehicle>
	<vehicle id="23" depart="0.00">
        <route edges="-476103813#1 476103813#0 421077027 -421077027 -723610179 -468433795#1 -203119342#1 -397327121#1 -468433796 -397327124#1 298848145#0 130285121#0 508158271 508158272#0 130889749#0 130889749#2 397316524#0 -397316522 -298814317#2 468433794 397319278#0 298814316 454817812 146537575#0 397319276"/>
    </vehicle>
	<vehicle id="24" depart="0.00">
        <route edges="-575569267#16 -575569267#14 -575569267#12 -575569267#10 -575569267#8 -575569267#6 -575569267#4 -575569267#2 575569268 130772928#0 121863780#0 121863780#1 988487224#0 48018630 988487225#0 130889704#0 130889704#1 837279711#0 837279711#2 837279711#4 1051205229#0 1051205229#1 130889702#0 130889702#3 130889702#4 1052908775#0 130889705#0 130889705#2 697824964#0 454815093#0 696806633#0 696806633#2 935806772#0 935806772#2 1054633206#0 86472738#0"/>
    </vehicle>
	<vehicle id="25" depart="0.00">
        <route edges="520468343#2 468469894#0 468469887 296355738#0 296355738#1 -468469890#3 -468469890#1 155011691#0 6056532#0 45838762#1 6062201#0 -130788155#2 -434444693#2 -509646034#1 -352412073 -47920785#1 -352412039#1 -298815729#1 -476103813#1 -352412083 -126303356#1 -298832261#2 -130908282 130908282 468433804 203119345#0"/>
    </vehicle>
	<vehicle id="26" depart="0.00">
        <route edges="-298832261#2 -298832254#2 -476103809#1 -520532363 -6060903#4 -6060903#2 -6060903#1 469165492#0 469165492#2 1049287312#0"/>
    </vehicle>
	<vehicle id="27" depart="0.00">
        <route edges="321477125#4 421075190#1 421075190#2 421075190#3 543909823#0 985426725#0 985426724 468436769#0 6056069#0 589533583#0 589539536#0 589539536#2 589539536#3 589539536#4 590581668#0 590581668#2 1049842802#0 1049842803 1049842804 589539534#0 1049287312#0 1049287312#2 126303354#0 126303354#2 345709542#0 1048676964#0 298848145#0 130285121#0 508158271 508158272#0 50260020#0 50260020#2 50260020#4 50260020#6 -297382770#5 -297382770#2 297382769#0 6061387#3"/>
    </vehicle>
	<vehicle id="28" depart="0.00">
        <route edges="-397304550 423615732#0 998360408#0 998360408#1 -47916243#1 -120478419#1 397315035#0"/>
    </vehicle>
	<vehicle id="29" depart="0.00">
        <route edges="476103813#0 421077027 -421077027 -723610179 -468433795#1 -203119342#1 347003229#0 347003229#2 589551073#0 1051018092#0 345633934 1051018093#0 589539535#0 589533502#0 468434122#0 468434122#2 695842775 469157093 469157092 1048252755#0 589533511 354436361#0 354436361#1"/>
    </vehicle>
	<vehicle id="30" depart="0.00">
        <route edges="520546834#0 49999718#0 49999718#1 -468433795#1 -203119342#1 347003229#0 347003229#2 589551073#0 1051018092#0 345633934 1051018093#0 589539535#0 589533502#0 126303366#0 126303365 6058797 520537749-AddedOnRampEdge 520537749 353283534#0"/>
    </vehicle>
	<vehicle id="31" depart="0.00">
        <route edges="864614823#0 -864614823#1 -298832240 -298832261#2 -298832254#2 -476103809#1 -520532363 -6060903#4 -6060903#2 -6060903#1 589539535#0 589533502#0 468434122#0 468434122#2 695842775 469157093 469157092 468434120#0 543909823#0 985426725#0 421076400#0"/>
    </vehicle>
	<vehicle id="32" depart="0.00">
        <route edges="397363850#1 854143897#0 -920893151#1 -6057581#6 -6057581#5 -6057581#4 -6057581#3 -6057581#2 -6057581#1 45838762#1 971624710 29961183#0 29961183#2 29961183#4 397321704#0 397321703#0 131076097#0 131076097#1 589539537#0 120478696#0 409551583 397324964#0 397324962 203025090#0"/>
    </vehicle>
	<vehicle id="33" depart="0.00">
        <route edges="421075190#2 421075190#3 543909823#0 985426725#0 985426724 468436769#0 6056069#0 589533583#0 589539536#0 589539536#2 589539536#3 589539536#4 -469165488#1 -469165487 -469165486#1 126303366#0 126303365 352412093#0 -438964977 -466359338#3 -466359338#1 469159256#0 469159256#3 469159259 -436136927#4 -436136927#2 -436136927#1 130889702#0 130889702#3 130889702#4"/>
    </vehicle>
	<vehicle id="34" depart="0.00">
        <route edges="397327932#0 26572919#3 297380214#3 -297380210#3 -297380210#1 -589539518#3 -589539518#1 -347003329#2 -333922526#3 -333922526#1 333922462#0 648026207#0 321444900 321444898 321444899#0 130788192#0 435424520#0 -420781368#1 -920893151#1"/>
    </vehicle>
	<vehicle id="35" depart="0.00">
        <route edges="-476103806 476103806 476103801 321477125#6 520537743#0 520537743#1 354436361#0 354436361#1 354436361#2 583698434 583698432 520537744 520537746 583705854 535520845#0 535520845#1 323742932 -126303366#1 469165486#0 469165487 469165488#0 -469165488#1"/>
    </vehicle>
	<vehicle id="36" depart="0.00">
        <route edges="436136927#0 436136927#2 436136927#3 469159258#0 469159258#1 469159258#2 468469919#0 1060936417 468433799#0 468433799#1 468433798#0 468433797#0"/>
    </vehicle>
	<vehicle id="37" depart="0.00">
        <route edges="297380214#0 297380214#3 -297380210#3 -297380210#1 -589539518#3 -589539518#1 333922765#0 -333922765#2"/>
    </vehicle>
	<vehicle id="39" depart="0.00">
        <route edges="6057813#0 297380211#7 590581593#0 590581593#2 590581593#4 -202992520#4 -202992520#2 -6057595#2 29961175#0 155011691#0 6056532#0 6057581#0 6057581#2 6057581#3 6057581#4 6057581#5 6057581#6 920893151#0 420781368#0 435424521#0 308739814#0 435424522#0 130788207#0 130788207#2 575569267#7"/>
    </vehicle>
	<vehicle id="40" depart="0.00">
        <route edges="6054355#0 -423602679 6053702#0 6053702#2 6053702#3 509326344#0 6054254#0 50431292#0 6057417#0 6056366#0 6056366#3 130889756#0 130889756#3 130889756#5 130889756#7 130889757#0 698748857#0 589539536#0 589539536#2 589539536#3 589539536#4 590581668#0 590581668#2 1049842802#0 1049842803 1049842804 589539534#0 1049287312#0 1049287312#2 126303354#0 126303354#2 345709542#0 1048676964#0 298848145#0 1047793071 298814315#0 508158270#0 421268132#0 439875857#0 590598870#0 509326776#0 650605162 6062204 988196201#0 6057595#0"/>
    </vehicle>
	<vehicle id="41" depart="0.00">
        <route edges="354436361#0 354436361#1 354436361#2 583698434 583698432 520537744 520537746 583705854 535520845#0 535520845#1 323742932 -126303366#1 469165486#0 469165487 469165488#0 -469165489#1 -469165490#1 -537114618#10 -537114618#8 -537114618#5 -537114618#4 -537114618#2 6062881#0 985067151 130285133#0-AddedOnRampEdge 130285133#0 130889756#3 130889756#5"/>
    </vehicle>
	<vehicle id="42" depart="0.00">
        <route edges="476103811 -352412083 -126303356#1 -298832261#2 -298832254#2 -476103809#1 -520532363 -6060903#4 -6060903#2 -6060903#1"/>
    </vehicle>
	<vehicle id="43" depart="0.00">
        <route edges="520537747 421061860 -421061860 126303364 323742932 -126303366#1 468434122#0 468434122#2 695842776#0 695842776#1 520537746 583705854"/>
    </vehicle>
	<vehicle id="44" depart="0.00">
        <route edges="6054255#0 6054255#2 6054255#3 6054255#6 6054255#7 513235538#0 297294791#0 297294792#0 589905511#0 397329575#0 397329570 397329572#0 397321698#0 397329577#0 6054886#0 397329580#0 397329578#0"/>
    </vehicle>
	<vehicle id="45" depart="0.00">
        <route edges="696806631#0 50797097#0 698748857#0 589539536#0 589539536#2 589539536#3 589539536#4 590581668#0 590581668#2 1049842802#0 1049842803 1049842804 589539534#0 1049287312#0 1049287312#2 126303354#0 126303354#2 345709542#0 1048676964#0 298848145#0 1047793071 298814315#0 508158270#0 421268132#0 439875857#0 590598870#0 321444898 321444899#0 130788192#0 435424520#0 -420781368#1 397327118#0"/>
    </vehicle>
	<vehicle id="46" depart="0.00">
        <route edges="26707982#0 130285133#0-AddedOnRampEdge 130285133#0 130889756#3 130889756#5 130889756#7 130889757#0 698748857#0 589539536#0 589539536#2 589539536#3 589539536#4 590581668#0 590581668#2 1049842802#0 1049842803 1049842804 589539534#0 1049287312#0 1049287312#2 6061944#0 468433806#0 468433805 438960035#0 130908282 468433804"/>
    </vehicle>
	<vehicle id="47" depart="0.00">
        <route edges="988487226 988487223 409551582 48018654 -298832235#4 -298832235#3 -298832235#2 -864614823#3 -864614823#1 -298832240 -298832261#2 -298832254#2 -476103809#1 -520532363 -6060903#4 -6060903#2 -6060903#1 589539535#0 589533502#0 469165486#0 469165487 469165488#0 -469165489#1 -469165490#1 -537114618#10 -537114618#8 -537114618#5 -537114618#4 -537114618#2 6062881#0 985067151 130285133#0-AddedOnRampEdge 130285133#0 6056363#0 6056363#2 6056363#3 130889760#0 131463018#0 509326252#0 296971737#0 6057421#0 6057421#2"/>
    </vehicle>
	<vehicle id="48" depart="0.00">
        <route edges="509646035#2 200019461#0 -130788192#2 -321444899#2 -321444898 321444902#0 321444902#3 354079209#0 987879163#0 508158268 987879162#0 421258870#0 1054351817 305660797#0 -305660797#0"/>
    </vehicle>
	<vehicle id="49" depart="0.00">
        <route edges="436136927#0 436136927#2 436136927#3 469159258#0 469159258#1 469159258#2 468469919#0 468469927#0 468469927#2 460536376#0 468469923#0 468469931#0 468469935#0 468469935#2 468469943#0 468469939#0 468469946#0 200019461#0 130788195 130788190 125568108#0 125568108#2 125568108#3 575569267#11 575569267#13 575569267#15 297400412#0 297401518#0"/>
    </vehicle>
	<vehicle id="50" depart="0.00">
        <route edges="442066186#0 353283534#0 353283534#1 323742931 126303364 323742932 -126303366#1 468434122#0 468434122#2 695842775 469157093 469157092 468434120#0 345633935#0 50799230#0 50799230#2 50799230#4 50799230#6 50799230#7 50524889#15 50524889#17 576620616"/>
    </vehicle>
	<vehicle id="51" depart="0.00">
        <route edges="-589533563#2 -347003330#6 397316523#0 -397316524#1 -130889749#2 -130889749#1 130927087#0 468433793#0 354079210 468433792#0 -756406654#1 -347003227 -468433791#1 49999716#0 49999716#2 49999716#3"/>
    </vehicle>
	<vehicle id="52" depart="0.00">
        <route edges="-397316524#1 -130889749#2 -130889749#1 130927087#0 468433793#0 354079210 468433792#0 -756406654#1 -347003227 -468433791#1 -521200399 -347003226 -535546520#4 -535546520#1 -479469615#3 -520463951#3 -520463951#1"/>
    </vehicle>
	<vehicle id="53" depart="0.00">
        <route edges="510723128#1 510723128#2 45838764#0 24238018#0 24238018#2 397319281#0 421734517#0 298814317#0 -347003330#3 347003328#0 -397303092#2 -397303090#1 -175873836#2 130802372#0 130802372#3 131448559#0 397364246#2 298832240 864614824#0 203119345#0 1060936417"/>
    </vehicle>
	<vehicle id="54" depart="0.00">
        <route edges="521198982 -521198982 -354202762 50429919 583705854 535520845#0 535520845#1 535520845#2 352412093#0 -352412093#2"/>
    </vehicle>
	<vehicle id="55" depart="0.00">
        <route edges="-435424521#1 -420781368#1 397327118#0 131520206#0 509325421 468450542 130285122#0 126303355#0 347003228#0 347003229#0 347003229#2 589551073#0 1051018092#0 345633934 1051018093#0 589539535#0 589533502#0 468434122#0 468434122#2 695842776#0 695842776#1 520537745 466349883 583705855 469165475"/>
    </vehicle>
	<vehicle id="56" depart="0.00">
        <route edges="-203025089#1 -203025090#3 -203025090#1 29961168#0 397321700#0 297368625#0 297368625#3 397321698#0 397321701#0"/>
    </vehicle>
	<vehicle id="57" depart="0.00">
        <route edges="6056366#0 6056366#3 130889756#0 130889756#3 130889756#5 130889756#7 130889757#0 698748857#0 589539536#0 589539536#2 589539536#3 589539536#4 590581668#0 590581668#2 1049842802#0 1049842803 1049842804 589539534#0 1049287312#0 1049287312#2 126303354#0 126303354#2 345709542#0 1048676964#0 298848145#0 130285121#0 508158271 508158272#0 50260020#0 50260020#2 50260020#4 50260020#6 333922526#0 333922526#2 347003329#0"/>
    </vehicle>
	<vehicle id="58" depart="0.00">
        <route edges="468469939#0 468469946#0 200019461#0 -130788192#2 -434444693#2 -509646034#1 -352412073 -47920785#1 -352412039#1 -298815729#1 -476103813#1 -352412083 -126303356#1 -298832261#2 -298832254#2 -476103809#1 354202945#0 352411913#0 130908283#0 -130908283#0"/>
    </vehicle>
	<vehicle id="59" depart="0.00">
        <route edges="45838766#1 297294789#0 494175930#0 297368443#0 146537579#0 130285135#0 397319284#0 397319281#0 421734517#0 298814317#0 -347003330#3 347003328#0 -397303092#2 -397303090#1 421259825#0"/>
    </vehicle>
	<vehicle id="60" depart="0.00">
        <route edges="397327932#0 26572919#3 297380214#3 -297380210#3 -297380210#1 -589539518#3 -589539518#1 -589533563#2 -347003330#6 -347003330#3 347003328#0 -397303092#2 -397303090#1 -175873836#2 130802372#0 130802372#3 589551073#0 1051018092#0 345633934 1051018093#0 589539535#0 589533502#0 469165486#0 469165487 469165488#0 -469165489#1 -469165490#1 -537114618#10 -537114618#8 -537114618#5 -537114618#4 -537114618#2 6062881#0 985067151 130285133#0-AddedOnRampEdge 130285133#0 130889756#3"/>
    </vehicle>
	<vehicle id="61" depart="0.00">
        <route edges="130802359#2 -130802359#2 -130802359#1 -297382769#6 -297382769#3 297382770#0 297382770#3 -50260020#7 -50260020#5 -50260020#3 -50260020#1 130927087#0 468433793#0 354079210 468433792#0 347003228#0 347003229#0 347003229#2 589551073#0 1051018092#0 345633934 1051018093#0 589539535#0 589533502#0 468434122#0 468434122#2 695842775 469157093 469157092 468434120#0 345633935#0 345633935#3 345633935#5 438958617#9 961869114#0"/>
    </vehicle>
	<vehicle id="62" depart="0.00">
        <route edges="-155011691#1 -29961175#1 -988196201#2 -6062204 6062876#0 509325421 50799689#0 321444902#0 321444902#3 354079209#0 987879163#0 508158268 987879162#0 421258870#0 397303090#0 397303092#0 130802371#0 -130802371#2"/>
    </vehicle>
	<vehicle id="63" depart="0.00">
        <route edges="837279711#0 -468433798#1 -468433799#1 -468433799#0 -468433800 -468433803 -468433804 -298832254#2 -476103809#1 -520532363 -6060903#4 -6060903#2 -6060903#1 589539535#0 589533502#0 469165486#0 469165487 469165488#0 -469165489#1 -469165490#1 469154540#0 26707840#0 -26707840#1 -469154540#1"/>
    </vehicle>
	<vehicle id="64" depart="0.00">
        <route edges="-397321705#1 -589551092#1 -589551092#0 146537587#0 397324962 297368443#0 146537579#0 130285135#0 397319284#0 397319281#0 421734517#0 298814317#0 -347003330#3 347003328#0 -397303092#2 -397303090#1 -175873836#2 130802372#0 130802372#3 589551073#0 1051018092#0 345633934 1051018093#0 589539535#0 589533502#0 468434122#0 468434122#2 695842775 469157093 469157092 468434120#0 345633935#0 50799230#0 50799230#2 -50799230#2"/>
    </vehicle>
	<vehicle id="65" depart="0.00">
        <route edges="520463956#0 969732759#0 -436136927#8 436136927#7 121980352 476103809#0 298832254#0 298832261#0 126303356#0 476103811 476103813#0 298815729#0 352412039#0 47920785#0 352412073 509646034#0 434444693#0 130788155#0 -6062201#2 971624710 6062876#0"/>
    </vehicle>
	<vehicle id="66" depart="0.00">
        <route edges="-130802376#2 -397321701#2 397329577#0 6054886#0 397329580#0 397329578#0 131076097#0"/>
    </vehicle>
	<vehicle id="67" depart="0.00">
        <route edges="-352412093#2 352412093#0 -352411913#1 -354202945#1 476103809#0 298832254#0 298832261#0 126303356#0 476103811 476103812 49999718#1 -468433795#1 -203119342#1 -397327121#1 -468433796 -397327124#1 298848145#0 130285121#0 508158271 508158272#0 50260020#0 50260020#2 50260020#4 50260020#6 -297382770#5 -297382770#2 397321704#0 397321703#0 -397329578#2 -397329580#1 -6054886#1"/>
    </vehicle>
	<vehicle id="68" depart="0.00">
        <route edges="-520463951#1 575569267#3 575569267#5 575569267#7 575569267#9 575569267#11 575569267#13 575569267#15 297400412#0 297401518#0 -494988146#2 -494988146#1 -50511365#7 -50511365#4 -50511365#3 -50511365#2 466352083#0"/>
    </vehicle>
	<vehicle id="69" depart="0.00">
        <route edges="130285121#0 508158271 508158272#0 50260020#0 50260020#2 70948801#3 439875857#0 590598870#0 509326776#0 650605162 6062204 988196201#0 29961175#0 468469890#0 468469890#2 -468469890#3"/>
    </vehicle>
	<vehicle id="70" depart="0.00">
        <route edges="321444898 -321444898 509326776#0 650605162 6062204 988196201#0 6057595#0 202992520#2 202992520#3 202992520#5 -202992520#6"/>
    </vehicle>
	<vehicle id="71" depart="0.00">
        <route edges="-352412083 -126303356#1 -298832261#2 -298832254#2 -476103809#1 -520532363 -6060903#4 -6060903#2 -6060903#1 589539535#0 589533502#0 469165486#0 469165487 469165488#0 -469165489#1 -469165490#1 -537114618#10 -537114618#8 -537114618#5 -537114618#4 -537114618#2 6062881#0 985067151"/>
    </vehicle>
	<vehicle id="72" depart="0.00">
        <route edges="-494988146#2 494988146#2 -50422161 998338690#6 47916248#0 397363850#1 130802361#0 6052882#0 435424522#0 435424522#2 435424522#4 48018661#0 130772931#1 575569268 130772928#0"/>
    </vehicle>
	<vehicle id="73" depart="0.00">
        <route edges="50018069 321477125#3 321477125#4 421075190#1 421075190#2 421075190#3 543909823#0"/>
    </vehicle>
	<vehicle id="74" depart="0.00">
        <route edges="6057581#2 6057581#3 6057581#4 6057581#5 6057581#6 920893151#0 420781368#0 435424521#0 308739814#0 435424522#0 435424522#2 435424522#4 48018661#0 130772931#1 575569268 130772928#0 121863780#0 121863780#1 988487224#0 48018630 988487225#0 130889704#0 130889704#1 837279711#0 -468433798#1 -468433799#1 -468433799#0 -468433800 -468433803"/>
    </vehicle>
	<vehicle id="75" depart="0.00">
        <route edges="468469900#1 468469900#4 468469897#0 468469894#0 468469887 296355738#0 296355738#1 -468469890#3 -468469890#1 155011691#0 6056532#0 45838762#1 6062201#0 -130788155#2 -434444693#2 -509646034#1 -352412073 -47920785#1 -352412039#1 50429905 924793627#0-AddedOnRampEdge 924793627#0 108060074#0 864614824#0"/>
    </vehicle>
	<vehicle id="76" depart="0.00">
        <route edges="-296365351#2 296365351#2 296365351#3 296365351#5 296365351#6 514191882#0 297380211#4 297380211#7 590581593#0 590581593#2 590581593#4 520468342 520468343#0 520468343#2 -468469897#1 -468469900#4 468469900#4 468469897#0"/>
    </vehicle>
	<vehicle id="77" depart="0.00">
        <route edges="583705854 535520845#0 535520845#1 535520845#2 352412093#0 -352411913#1 -354202945#1 476103809#0 298832254#0 298832261#0 126303356#0 476103811 476103813#0 298815729#0 352412039#0 47920785#0 352412073 509646034#0 434444693#0 130788192#0 130788195 130788190 125568108#0 125568108#2"/>
    </vehicle>
	<vehicle id="78" depart="0.00">
        <route edges="-590581593#1 -297380211#8 -297380211#6 514191883#0 -120478695#2 397329575#0 397329570 397329572#0 297380214#0 297380214#3 589539537#0 120478696#0 409551583"/>
    </vehicle>
	<vehicle id="79" depart="0.00">
        <route edges="203119345#0 468469927#0 468469927#2 460536376#0 468469923#0 468469931#0 468469935#0 468469935#2 468469943#0 468469939#0 468469946#0 200019461#0 435424520#0 -420781368#1 -920893151#1 -6057581#6 -6057581#5 -6057581#4 -6057581#3 -6057581#2 -6057581#1 954271698#0 988196201#0 6057595#0 -202992519#2 -468441158#1"/>
    </vehicle>
	<vehicle id="80" depart="0.00">
        <route edges="297368625#0 -397327938 -397327939#1 26572919#3 297380214#3 -297380210#3 -297380210#1 -589539518#3 -589539518#1 -589533563#2 -347003330#6 -347003330#3 347003328#0 -397303092#2 -397303090#1 -175873836#2 130802372#0 130802372#3 589551073#0 1051018092#0 345633934 1051018093#0 589539535#0 589533502#0 468434122#0 468434122#2 695842775 469157093 469157092 1048252755#0 589533511 520537739 589905634 466349884 1049230589 130908290#0 130908290#3"/>
    </vehicle>
	<vehicle id="81" depart="0.00">
        <route edges="397321703#0 131076063#0 589539520#0 -333922526#3 -333922526#1 333922462#0 648026207#0 321444900 321444898"/>
    </vehicle>
	<vehicle id="82" depart="0.00">
        <route edges="1049226223#1 466359339#0 466359339#1 503185211 130889761 589533582 583698433#0 -130285136#2 -468436770 -698748856#1 698748856#0 468436770 130285136#0"/>
    </vehicle>
	<vehicle id="83" depart="0.00">
        <route edges="575569267#3 575569267#5 575569267#7 575569267#9 -125568108#4 -125568108#2 -125568108#1 -130788190 -130788195 435424520#0 -420781368#1 -920893151#1 -6057581#6 -6057581#5 -6057581#4 -6057581#3 -6057581#2 -6057581#1 954271698#0 988196201#0 6057595#0 202992520#2 202992520#3 -590581593#5 -590581593#3 -590581593#1"/>
    </vehicle>
	<vehicle id="84" depart="0.00">
        <route edges="397319276 130285135#0 397319284#0 397319281#0 421734517#0 298814317#0 -347003330#3 397316186#0 397316195#0 397316204#0 347003327#0 397327124#0 468433796 397327121#0 203119342#0 468433795#0 723610179 -476103813#1 -352412083 -126303356#1 -298832261#2 -298832254#2 -476103809#1 354202945#0 352411913#0 -352412093#2 -421061860 126303364 323742932 -126303366#1"/>
    </vehicle>
	<vehicle id="86" depart="0.00">
        <route edges="-203025089#2 203025089#2 297294789#0 297294784#0 513235538#0 297294791#0 297294792#0 589905511#0 120478695#0 120478695#3 120478695#4 120478695#5 468441885#0 468441885#2 202992519#0 589551087#0 47916246#0 47916246#2 297296762#0 -292148140#4 -6063421#5 -6063421#3 -6063421#2 -6063421#1 -6063421#0"/>
    </vehicle>
	<vehicle id="87" depart="0.00">
        <route edges="-575569267#6 -575569267#4 520463951#0 520463951#2 479469615#0 535546520#0 535546520#3 347003226 521200399 468433791#0 347003227 756406654#0 347003228#0 347003229#0 347003229#2 589551073#0 1051018092#0 345633934 1051018093#0 589539535#0 589533502#0 469165486#0 469165487 469165488#0 -469165489#1 -469165490#1 -537114618#10 -537114618#8 -537114618#5 -537114618#4 -537114618#2 6062881#0 985067151 130285133#0-AddedOnRampEdge 130285133#0 6056363#0 6056363#2 6056363#3 130889760#0 131463018#0 509326252#0 50431292#0 696806634#0"/>
    </vehicle>
	<vehicle id="88" depart="0.00">