<?xml version="1.0" encoding="UTF-8"?>
<!-- generated on 2022-10-26 03:16:09.273583 by $Id$ UNKNOWN
  options: -n /Users/nafiulhassan/veins-5.1/examples/veins/input/washingtondc/30/washingtondc.net.xml -s 24 -e 50 -o /Users/nafiulhassan/veins-5.1/examples/veins/input/washingtondc/seed-24/50/washingtondc.trips.xml
-->
<routes xmlns:xsi="http://www.w3.org/2001/XMLSchema-instance" xsi:noNamespaceSchemaLocation="http://sumo.dlr.de/xsd/routes_file.xsd">
    <trip id="0" depart="0.00" from="47916248#0" to="575569267#13"/>
    <trip id="1" depart="1.00" from="-468469900#4" to="998338690#6"/>
    <trip id="2" depart="2.00" from="-47916247#2" to="468450542"/>
    <trip id="3" depart="3.00" from="-333922766#3" to="50429929"/>
    <trip id="4" depart="4.00" from="-436136927#5" to="476103803"/>
    <trip id="5" depart="5.00" from="496467787#0" to="50513886#0"/>
    <trip id="6" depart="6.00" from="203119342#0" to="589539517#0"/>
    <trip id="7" depart="7.00" from="985067151" to="-397316522"/>
    <trip id="8" depart="8.00" from="333922766#0" to="70948801#2"/>
    <trip id="9" depart="9.00" from="50428539#5" to="203025089#2"/>
    <trip id="10" depart="10.00" from="1033847613#0" to="696806634#0"/>
    <trip id="11" depart="11.00" from="-305660797#4" to="50511364#0"/>
    <trip id="12" depart="12.00" from="583698432" to="-45838764#1"/>
    <trip id="13" depart="13.00" from="1060936417" to="-998338690#5"/>
    <trip id="14" depart="14.00" from="354436361#2" to="130788167#1"/>
    <trip id="15" depart="15.00" from="6054252#2" to="6058193#0"/>
    <trip id="16" depart="16.00" from="1049303874#0" to="6054151#0"/>
    <trip id="17" depart="17.00" from="-297380211#3" to="-347003330#3"/>
    <trip id="18" depart="18.00" from="468444094#0" to="509649677"/>
    <trip id="19" depart="19.00" from="535462248" to="987879162#0"/>
    <trip id="20" depart="20.00" from="589533563#0" to="-6057581#1"/>
    <trip id="21" depart="21.00" from="50429905" to="6058193#0"/>
    <trip id="22" depart="22.00" from="-345633936#1" to="298825115#0"/>
    <trip id="23" depart="23.00" from="-438958617#6" to="-423602679"/>
    <trip id="24" depart="24.00" from="297382770#3" to="468441885#2"/>
    <trip id="25" depart="25.00" from="923370378#8" to="-397329572#1"/>
    <trip id="26" depart="26.00" from="321444902#0" to="989844901#0"/>
    <trip id="27" depart="27.00" from="50524889#15" to="347003229#2"/>
    <trip id="28" depart="28.00" from="-589533512#3" to="438964976#0"/>
    <trip id="29" depart="29.00" from="-6056532#2" to="466349884"/>
    <trip id="30" depart="30.00" from="468433793#0" to="130889756#5"/>
    <trip id="31" depart="31.00" from="510723128#1" to="130908283#3"/>
    <trip id="32" depart="32.00" from="297296762#0" to="537114618#2"/>
    <trip id="33" depart="33.00" from="-590581593#1" to="-469165486#1"/>
    <trip id="34" depart="34.00" from="397327121#0" to="175873836#0"/>
    <trip id="35" depart="35.00" from="589551072#0" to="-589551092#0"/>
    <trip id="36" depart="36.00" from="130802360#1" to="-296365351#2"/>
    <trip id="37" depart="37.00" from="26707982#0" to="1036008538"/>
    <trip id="38" depart="38.00" from="26572919#0" to="50511365#3"/>
    <trip id="39" depart="39.00" from="-202992519#2" to="985426725#0"/>
    <trip id="40" depart="40.00" from="47916247#3" to="520532363"/>
    <trip id="41" depart="41.00" from="354079210" to="397321705#0"/>
    <trip id="42" depart="42.00" from="130927087#0" to="130889758#3"/>
    <trip id="43" depart="43.00" from="-520463951#1" to="-983121554#7"/>
    <trip id="44" depart="44.00" from="-983121553#1" to="120478695#0"/>
    <trip id="45" depart="45.00" from="6056069#0" to="509646035#2"/>
    <trip id="46" depart="46.00" from="466352083#0" to="-130788190"/>
    <trip id="47" depart="47.00" from="-6057421#3" to="353283601"/>
    <trip id="48" depart="48.00" from="469159259" to="131052508#0"/>
    <trip id="49" depart="49.00" from="45838763#0" to="6055387#2"/>
</routes>
