<?xml version="1.0" encoding="UTF-8"?>

<!-- generated on 2022-10-26 03:08:30 by Eclipse SUMO duarouter Version 1.10.0
	<routes>

    <input>
        <net-file value="/Users/nafiulhassan/veins-5.1/examples/veins/input/washingtondc/20/washingtondc.net.xml"/>
        <route-files value="/Users/nafiulhassan/veins-5.1/examples/veins/input/washingtondc/seed-16/20/washingtondc.trips.xml"/>
    </input>

    <output>
        <output-file value="/Users/nafiulhassan/veins-5.1/examples/veins/input/washingtondc/seed-16/20/washingtondc.rou.xml"/>
        <alternatives-output value="/Users/nafiulhassan/veins-5.1/examples/veins/input/washingtondc/seed-16/20/washingtondc.rou.alt.xml"/>
    </output>

    <report>
        <ignore-errors value="true"/>
    </report>

</configuration>
-->

	<routes>
	<vehicle id="0" depart="0.00">
        <route edges="130788158#0 130802362#0 130802362#1 1049226224#0 1049226223#0 1049226223#1 696737929#0 696737929#1 696737929#2 130802360#0 130802360#1 469159255 353283535#0 353283535#2 469159257#0 469159256#0 469159256#3 469159259 469159258#0 469159258#1 469159258#2 468469919#0 468469927#0 468469927#2 460536376#0 468469923#0 468469931#0 468469935#0 468469935#2 468469943#0 468469939#0 468469946#0 200019461#0 435424520#0 -420781368#1 -920893151#1 -6057581#6 -6057581#5 -6057581#4 -6057581#3 -6057581#2 -6057581#1 954271698#0 988196201#0 6057595#0 -202992519#2 -468441158#1 -468441885#1 -468441884 -120478695#4 -120478695#3 -514191883#2 297380211#4"/>
    </vehicle>
	<vehicle id="1" depart="0.00">
        <route edges="131052512#0 131052512#2 131052512#3 131052512#4 130908059#0 397329575#0 397329570 397329572#0 297380214#0 297380214#3 -297380210#3 -297380210#1 -589539518#3 -589539518#1 -589533563#2 -347003330#6 -347003330#3 397316186#0 397316195#0 397316204#0 347003327#0 397327124#0 468433796 397327121#0 203119342#0"/>
    </vehicle>
	<vehicle id="2" depart="0.00">
        <route edges="130927087#0 468433793#0 354079210 468433792#0 -756406654#1 -347003227 -468433791#1 -521200399 -347003226 -535546520#4 -535546520#1 -479469615#3 48018661#0 130772931#1 575569268 130772928#0 121863780#0 121863780#1 988487224#0 48018630 988487225#0 130889704#0 130889704#1 837279711#0 468433797#0 468433797#3"/>
    </vehicle>
	<vehicle id="3" depart="0.00">
        <route edges="-6055383#2 130889755#0 130889756#0 130889756#3 130889756#5 130889756#7 130889757#0 698748857#0 589539536#0 589539536#2 589539536#3 589539536#4 590581668#0 590581668#2 1049842802#0 1049842803 1049842804 589539534#0 1049287312#0 1049287312#2 126303354#0 126303354#2 345709542#0 1048676964#0 298848145#0 1047793071 298814315#0 508158270#0 421268132#0 439875858#1 439875858#4 439875858#6 439875858#8"/>
    </vehicle>
	<vehicle id="4" depart="0.00">
        <route edges="-126303361#4 -126303361#1 -421077027 -476103813#1 -352412083 -126303356#1 -298832261#2 -298832254#2 -476103809#1 354202945#0 50429913 436136929#2-AddedOnRampEdge 436136929#2 -466359338#3 -466359338#1 -983121554#11 -983121554#7 -983121554#6"/>
    </vehicle>
	<vehicle id="5" depart="0.00">
        <route edges="121863780#0 121863780#1 988487224#0 988487222 988487223 409551582 50009629#0 130772956#0 -130772954 -126303361#7 -126303361#4 -126303361#1 -421077027 -723610179 -468433795#1 -203119342#1 -397327121#1 -468433796 -397327124#1 -347003327#2 -397316204#2 421290235#0 -421290235#2"/>
    </vehicle>
	<vehicle id="6" depart="0.00">
        <route edges="50429906 49999716#2 50429908 -352412073 -47920785#1 -352412039#1 -298815729#1 -723610179 -468433795#1 -203119342#1 347003229#0 347003229#2 589551073#0 1051018092#0 345633934 1051018093#0 589539535#0 589533502#0 469165486#0 469165487 469165488#0 -469165489#1 -469165490#1 -537114618#10 543712321#0 1033847612#0 1033847614#0"/>
    </vehicle>
	<vehicle id="7" depart="0.00">
        <route edges="509466050#0 397316204#0 347003327#0 397327124#0 468433796 397327121#0 347003229#0 347003229#2 589551073#0 1051018092#0 345633934 1051018093#0 589539535#0 589533502#0 469165486#0 469165487 469165488#0 -469165489#1 -469165490#1 469154540#0 26707840#0 698748856#0"/>
    </vehicle>
	<vehicle id="8" depart="0.00">
        <route edges="-6053702#1 6053702#0 6053702#2"/>
    </vehicle>
	<vehicle id="9" depart="0.00">
        <route edges="520537739 352412106 521221938 521198981 203119343 50429924 583698432 520537744 520537746 583705854 535520845#0 535520845#1 323742932 -126303366#1 468434122#0 468434122#2"/>
    </vehicle>
	<vehicle id="10" depart="0.00">
        <route edges="-130908283#1 -130908283#0 -352411913#1 -354202945#1 476103809#0 298832254#0 298832261#0 126303356#0 476103811 476103813#0 298815729#0 352412039#0 47920785#0 352412073 509646034#0 434444693#0 130788155#0 131520206#0 650605162 6062204 988196201#0 29961175#0 468469890#0 468469890#2 -296355738#2 -296355738#0 -468469887 -468469894#1 292148140#0"/>
    </vehicle>
	<vehicle id="11" depart="0.00">
        <route edges="439875857#0 590598870#0 509326776#0 650605162 6062204 988196201#0 29961175#0 155011691#0 50710195#0 50710195#2 297296749#0 -466352083#1 -958872539#4"/>
    </vehicle>
	<vehicle id="12" depart="0.00">
        <route edges="-520468347#3 520468347#2 292148139#0 -202992520#2 -6057595#2 -988196201#2 -6062204 6062876#0 509325421 468450542 130285122#0 126303355#0 347003228#0 347003229#0 347003229#2 589551073#0 1051018092#0 345633934 1051018093#0 589539535#0 589533502#0 469165486#0 469165487 469165488#0 -469165489#1 -469165490#1 -537114618#10 543712321#0 1033847612#0 1033847614#0"/>
    </vehicle>
	<vehicle id="13" depart="0.00">
        <route edges="-6054886#1 -397329577#1 397329577#0 6054886#0 397329580#0 397329578#0 131076063#0 589539520#0 -333922526#3 -333922526#1 -50260020#7 -50260020#5 -50260020#3 -50260020#1 50260019#0 508158268 987879162#0 74100353#0 508158273"/>
    </vehicle>
	<vehicle id="14" depart="0.00">
        <route edges="130285088#0 469165485#0 442066186#0 353283535#0 353283535#2 469159257#0 469159256#0 469159256#3 469159259 469159258#0 469159258#1 469159258#2 468469919#0 468469927#0 468469927#2 460536376#0 468469923#0 468469931#0 468469935#0 468469935#2 468469943#0 468469939#0 468469946#0 200019461#0 435424520#0 -420781368#1 -920893151#1 -6057581#6 -6057581#5 -6057581#4 -6057581#3 -6057581#2 -6057581#1 954271698#0 988196201#0 6057595#0 -202992519#2 -468441158#1 -468441885#1 -468441884 -120478695#4 -120478695#3 -120478695#2 -130908059#2 -131052512#5 -131052512#3 131052512#3"/>
    </vehicle>
	<vehicle id="15" depart="0.00">
        <route edges="466359339#0 466359339#1 503185206 583698431#0 583698431#1 466349884 1049230589 1049226223#0 1049226223#1 696737929#0"/>
    </vehicle>
	<vehicle id="16" depart="0.00">
        <route edges="-983121553#0 983121554#0 983121554#4 983121554#6 983121554#7 983121554#9 469159256#0 469159256#3 469159259 469159258#0 469159258#1 469159258#2 468469919#0 468469927#0 468469927#2 460536376#0 468469923#0 468469931#0 468469935#0 468469935#2 468469943#0 468469939#0 468469946#0 200019461#0 435424520#0 -420781368#1 397327118#0 131520206#0 252140542#0 -202992524#7"/>
    </vehicle>
	<vehicle id="17" depart="0.00">
        <route edges="923370378#8 923370378#10 468434115#0 537114618#0 537114618#2 537114618#3 537114618#5"/>
    </vehicle>
	<vehicle id="18" depart="0.00">
        <route edges="509640269 920636360#0 589551072#0 6063274#0 1049303874#0 130889755#0 130889756#0 130889756#3 130889756#5 130889756#7 130889757#0 698748857#0 589539536#0 589539536#2 589539536#3 589539536#4 590581668#0 590581668#2 1049842802#0 1049842803 1049842804 589539534#0 1049287312#0 1049287312#2 126303354#0 126303354#2 345709542#0 1048676964#0 298848145#0 130285121#0 508158271 508158272#0 130889749#0 130889749#2 397316524#0 -397316522 347003330#4 589533563#0 589539518#0 589539518#2 297380210#0 297380210#2 589539537#0 397327934#0 397327932#0 397327939#0 397327938 397327933 397327935#0 397327936#0 397327937#0 333922766#0 333922766#2"/>
    </vehicle>
	<vehicle id="19" depart="0.00">
        <route edges="-537114618#8 537114618#6 537114618#9 469154540#0 26707840#0 698748856#0 468436770 130285136#0 -468436769#1 -985426724 -985426725#1 -543909823#1 345633935#0 345633935#3 345633935#5 -438958617#8 -438958617#6"/>
    </vehicle>
</routes>
