<?xml version="1.0" encoding="UTF-8"?>

<!-- generated on 2022-10-26 03:15:48 by Eclipse SUMO duarouter Version 1.10.0
	<routes>

    <input>
        <net-file value="/Users/nafiulhassan/veins-5.1/examples/veins/input/washingtondc/30/washingtondc.net.xml"/>
        <route-files value="/Users/nafiulhassan/veins-5.1/examples/veins/input/washingtondc/seed-19/30/washingtondc.trips.xml"/>
    </input>

    <output>
        <output-file value="/Users/nafiulhassan/veins-5.1/examples/veins/input/washingtondc/seed-19/30/washingtondc.rou.xml"/>
        <alternatives-output value="/Users/nafiulhassan/veins-5.1/examples/veins/input/washingtondc/seed-19/30/washingtondc.rou.alt.xml"/>
    </output>

    <report>
        <ignore-errors value="true"/>
    </report>

</configuration>
-->

	<routes>
	<vehicle id="0" depart="0.00">
        <route edges="468469927#0 468469927#2 460536376#0 468469923#0 468469931#0 -126303361#4 -126303361#1 -421077027 -723610179 -468433795#1 -203119342#1 -397327121#1 -468433796 -397327124#1 -347003327#2 74100353#0 508158273 508158268"/>
    </vehicle>
	<vehicle id="1" depart="0.00">
        <route edges="345633935#5 438958617#9 961869114#0 496467785#0 985426724 468436769#0 6056069#0 589533583#0 589539536#0 589539536#2 589539536#3 589539536#4 590581668#0 590581668#2 1049842802#0 1049842803 1049842804 589539534#0 1049287312#0 1049287312#2 126303354#0 126303354#2 345709542#0 1048676964#0 298848145#0 1047793071 298814315#0 508158270#0 421268132#0 321444902#3"/>
    </vehicle>
	<vehicle id="2" depart="0.00">
        <route edges="130889759#2 590605528#0 590605528#2 590605528#3 696737929#0 696737929#1 696737929#2 130802360#0 130802360#1 469159255 353283535#0 353283535#2 469159257#0 469159256#0 469159256#3 469159259 469159258#0 469159258#1 469159258#2 468469919#0 468469927#0 468469927#2 460536376#0 298832235#0 298832235#3 298832235#4 48018653 48018648#0 468469915#0 468469915#1 130772931#1 575569268 130772928#0 121863780#0 121863780#1 988487224#0 48018630 988487226"/>
    </vehicle>
	<vehicle id="3" depart="0.00">
        <route edges="-923370378#2 923370378#1 923370378#3 923370378#5 923370378#7 923370378#8 923370378#10 468434115#0 537114618#0 537114618#2 537114618#3 537114618#5 537114618#6 537114618#9 469165490#0 469165490#2 -469165488#1 -469165487 -469165486#1 126303366#0 126303365 352412093#0 -438964977 -466359338#3 -466359338#1 469159256#0 469159256#3 469159259 -436136927#4 -436136927#2 -436136927#1"/>
    </vehicle>
	<vehicle id="4" depart="0.00">
        <route edges="-6057421#1 6054254#0 469154543 397360055#0 50431293#0 469154544 6063274#0 1049303874#0 6055383#0 -6055383#2"/>
    </vehicle>
	<vehicle id="5" depart="0.00">
        <route edges="108060074#0 864614823#0 864614823#2 468469923#0 468469931#0 468469935#0 468469935#2 468469943#0 468469939#0 468469946#0 200019461#0 435424520#0 -420781368#1 -920893151#1 -6057581#6 -6057581#5 -6057581#4 -6057581#3"/>
    </vehicle>
	<vehicle id="6" depart="0.00">
        <route edges="-397303092#2 -397303090#1 421259825#0 347003327#0 397327124#0 468433796 397327121#0 203119342#0 468433795#0 723610179 421077027 126303361#0 126303361#3 126303361#5 130772954 696198846#1 48018648#0 468469915#0 468469915#1 130772931#1 575569268 130772928#0 121863780#0 121863780#1 988487224#0 48018630 988487225#0 130889704#0 130889704#1 1051205228#0"/>
    </vehicle>
	<vehicle id="7" depart="0.00">
        <route edges="1049226223#1 696737929#0 696737929#1 696737929#2 130802360#0 130802360#1 469159255 353283534#0 353283534#1 323742931 126303364 323742932 -126303366#1 469165486#0 469165487 469165488#0 590581668#0 590581668#2 1049842802#0 1049842803 1049842804 589539534#0 1049287312#0 1049287312#2 126303354#0 126303354#2 345709542#0 1048676964#0 298848145#0 130285121#0 508158271 508158272#0 130889749#0 130889749#2 397316524#0 -397316522 -298814317#2 468433794 397319278#0 298814316 454817812 397319281#0"/>
    </vehicle>
	<vehicle id="8" depart="0.00">
        <route edges="-50260020#5 50260020#4 50260020#6 333922526#0 333922526#2 347003329#0 589539518#0 589539518#2 297380210#0 297380210#2 -297380214#6 -297380214#2"/>
    </vehicle>
	<vehicle id="9" depart="0.00">
        <route edges="-50260020#7 -50260020#5 -50260020#3 -50260020#1 130927087#0 468433793#0 354079210 468433792#0 347003228#0 347003229#0 347003229#2 589551073#0 1051018092#0 345633934 1051018093#0 589539535#0 589533502#0 126303366#0 126303365 6058797 520537749-AddedOnRampEdge 520537749 353283535#0 353283535#2"/>
    </vehicle>
	<vehicle id="10" depart="0.00">
        <route edges="130889758#0 130889758#2 130889758#3 130889758#4 130889758#6 130889758#10 130889758#12 696806633#0 696806633#2 590605528#0 590605528#2 590605528#3 696737929#0 696737929#1 696737929#2 130802360#0 130802360#1 469159255 353283534#0 353283534#1 323742931 126303364 535520845#2 352412093#0 -352411913#1 -354202945#1 476103809#0 298832254#0 298832261#0 126303356#0 476103811 476103812 49999718#1"/>
    </vehicle>
	<vehicle id="11" depart="0.00">
        <route edges="520468343#2 468469894#0 468469887 296355738#0 296355738#1 -589551087#2 -202992519#2 -468441158#1 -468441885#1 -468441884 -120478695#4 -120478695#3 -120478695#2 -589905511#3 -297294792#2 131052297#0"/>
    </vehicle>
	<vehicle id="12" depart="0.00">
        <route edges="-352411913#1 352411913#0 -352412093#2 -421061860 126303364 323742932 -126303366#1 468434122#0 468434122#2 695842775 469157093 583698433#0 696806631#0 -496467787#1 496467785#0"/>
    </vehicle>
	<vehicle id="13" depart="0.00">
        <route edges="50431292#0 6057417#0 6056366#0 6056366#3 130889756#0 130889756#3 130889756#5 130889756#7 130889757#0 698748857#0 589533584#0 695842776#0 695842776#1 520537745 466349883 583705855 469165475 130889758#0 130889758#2 130889758#3"/>
    </vehicle>
	<vehicle id="14" depart="0.00">
        <route edges="468434113#2 50524890#5 6061544 -589533512#0 696806632#0 130908291#0 1049226224#0 1049226223#0 1049226223#1 696737929#0 696737929#1 696737929#2 130802360#0 130802360#1 469159255 466359342#0 466359342#3 -983121553#5"/>
    </vehicle>
	<vehicle id="15" depart="0.00">
        <route edges="6057421#2 -6057421#3 -6057421#1 6054254#0 50431292#0 6057417#0 6056366#0 6056366#3 130285119#0 130285119#2 130285119#3 923370378#10 468434115#0 537114618#0 537114618#2 537114618#3 537114618#5 537114618#6 537114618#9"/>
    </vehicle>
	<vehicle id="16" depart="0.00">
        <route edges="509646034#0 -509646034#1 -352412073 -47920785#1 -352412039#1 -298815729#1 -723610179 -468433795#1 -203119342#1 347003229#0 347003229#2 589551073#0 1051018092#0 345633934 1051018093#0 589539535#0 589533502#0 469165486#0 469165487 469165488#0 -469165489#1 -469165490#1 -537114618#10 -537114618#8 -537114618#5 -537114618#4 -537114618#2 6062881#0 985067151 130285133#0-AddedOnRampEdge 130285133#0 6056363#0 6056363#2 6056363#3 203119341#0 696806636#0"/>
    </vehicle>
	<vehicle id="17" depart="0.00">
        <route edges="-537114618#2 537114618#2 537114618#3 537114618#5 537114618#6 537114618#9 469154540#0 26707840#0 698748857#0 589533584#0 695842776#0 695842776#1 520537745 354202762"/>
    </vehicle>
	<vehicle id="18" depart="0.00">
        <route edges="50009629#0 48018648#0 468469915#0 48018646#0 48018646#2 1052604510#0 -435424522#5 -435424522#3 -435424522#1 -308739814#1 -435424521#1 -420781368#1 -920893151#1 -6057581#6 -6057581#5 -6057581#4 -6057581#3 -6057581#2 -6057581#1 954271698#0 988196201#0 6057595#0 -202992519#2 -468441158#1 -468441885#1 -468441884 -120478695#4 -120478695#3 -514191883#2 -514191882#1 -296365351#6 296365351#6 514191882#0"/>
    </vehicle>
	<vehicle id="19" depart="0.00">
        <route edges="130889758#2 130889758#3 130889758#4 130889758#6 130889758#10 130889758#12 696806633#0 696806633#2 590605528#0 590605528#2 590605528#3 696737929#0 696737929#1 696737929#2 130802360#0 130802360#1 469159255 353283535#0 353283535#2 469159257#0 469159256#0 469159256#3 469159259 469159258#0 469159258#1 469159258#2 468469919#0 468469927#0 468469927#2 460536376#0 468469923#0 468469931#0 468469935#0 468469935#2 468469943#0 468469939#0 468469946#0 200019461#0 435424520#0 -420781368#1"/>
    </vehicle>
	<vehicle id="20" depart="0.00">
        <route edges="439875857#0 590598870#0 321444898 130285122#0 126303355#0 347003228#0 347003229#0 347003229#2 589551073#0 1051018092#0 345633934 1051018093#0 589539535#0 589533502#0 468434122#0 468434122#2 695842776#0 695842776#1 520537745 354202762 -354202762"/>
    </vehicle>
	<vehicle id="21" depart="0.00">
        <route edges="476103811 476103813#0 298815729#0 352412039#0 47920785#0 352412073 509646034#0 434444693#0 130788192#0 130788195 130788190 125568108#0 -125568108#1"/>
    </vehicle>
	<vehicle id="22" depart="0.00">
        <route edges="296365351#0 296365351#2 296365351#3 296365351#5 296365351#6 514191882#0 -297380211#3 297380211#0"/>
    </vehicle>
	<vehicle id="23" depart="0.00">
        <route edges="-397318414#1 397318414#0 397318412#0 397327934#0 397327932#0 397327939#0 397327938 397327933 397327935#0 589905511#0 120478695#0 -514191883#2 297380211#4"/>
    </vehicle>
	<vehicle id="24" depart="0.00">
        <route edges="305660797#0 -305660797#0 -1054351818#1 421259825#0 74100353#0 508158273 508158270#0 421268132#0 439875858#1 439875858#4 439875858#6 439875858#8 516085385 509646035#0 509646035#2 130788204#0"/>
    </vehicle>
	<vehicle id="25" depart="0.00">
        <route edges="6054255#3 6054255#6 6054255#7 -297294784#2 494175930#0 297368443#0 146537579#0 130285135#0 -333922782#1 -333922765#2 589539518#0"/>
    </vehicle>
	<vehicle id="26" depart="0.00">
        <route edges="6053702#2 6053702#3 509326344#0 6054254#0 50431292#0 6057417#0 6056366#0 6056366#3 130889756#0 130889756#3 130889756#5 130889756#7 130889757#0 698748857#0 589539536#0 589539536#2 589539536#3 589539536#4 590581668#0 590581668#2 1049842802#0 1049842803 1049842804 589539534#0 1049287312#0 1049287312#2 126303354#0 126303354#2 345709542#0 1048676964#0 298848145#0 130285121#0 508158271 508158272#0 130889749#0 130889749#2 397316524#0 -397316522 347003330#4 589533563#0 589539518#0 589539518#2 -589539518#3"/>
    </vehicle>
	<vehicle id="27" depart="0.00">
        <route edges="-130908282 -438960035#1 -468433805 -468433806#1 1051018092#0 345633934 1051018093#0 589539535#0 589533502#0 468434122#0 468434122#2 695842776#0 695842776#1 520537745 466349883 583705855 469165475 130802360#0 130802360#1"/>
    </vehicle>
	<vehicle id="28" depart="0.00">
        <route edges="-397316186#1 -397316180#1 -397316171 -397316176#1 47471725#0"/>
    </vehicle>
	<vehicle id="29" depart="0.00">
        <route edges="-6057544#2 6057544#2 6057544#3 -131052512#5 -131052512#3 -131052512#2 -131052512#1 -397327937#1 -397327936#1"/>
    </vehicle>
</routes>
