<?xml version="1.0" encoding="UTF-8"?>
<!-- generated on 2022-10-26 03:16:04.740398 by $Id$ UNKNOWN
  options: -n /Users/nafiulhassan/veins-5.1/examples/veins/input/washingtondc/30/washingtondc.net.xml -s 23 -e 40 -o /Users/nafiulhassan/veins-5.1/examples/veins/input/washingtondc/seed-23/40/washingtondc.trips.xml
-->
<routes xmlns:xsi="http://www.w3.org/2001/XMLSchema-instance" xsi:noNamespaceSchemaLocation="http://sumo.dlr.de/xsd/routes_file.xsd">
    <trip id="0" depart="0.00" from="6058793#0" to="696737929#0"/>
    <trip id="1" depart="1.00" from="6054151#0" to="-305660797#2"/>
    <trip id="2" depart="2.00" from="420781368#0" to="131052512#4"/>
    <trip id="3" depart="3.00" from="352412039#0" to="-397327939#1"/>
    <trip id="4" depart="4.00" from="-47916243#1" to="203025090#0"/>
    <trip id="5" depart="5.00" from="-520463951#1" to="26707982#0"/>
    <trip id="6" depart="6.00" from="-130907982#1" to="-321444898"/>
    <trip id="7" depart="7.00" from="47916247#0" to="131052508#4"/>
    <trip id="8" depart="8.00" from="323742931" to="50008440"/>
    <trip id="9" depart="9.00" from="130772943#2" to="-296365351#2"/>
    <trip id="10" depart="10.00" from="509325421" to="397329577#0"/>
    <trip id="11" depart="11.00" from="468434113#2" to="436136927#5"/>
    <trip id="12" depart="12.00" from="923370378#1" to="130772943#2"/>
    <trip id="13" depart="13.00" from="50511365#2" to="130788195"/>
    <trip id="14" depart="14.00" from="397324962" to="468433804"/>
    <trip id="15" depart="15.00" from="1049253134" to="-321444898"/>
    <trip id="16" depart="16.00" from="297380211#0" to="47920785#0"/>
    <trip id="17" depart="17.00" from="409551582" to="203119343"/>
    <trip id="18" depart="18.00" from="466359338#2" to="-468469900#0"/>
    <trip id="19" depart="19.00" from="-468469890#1" to="1049842804"/>
    <trip id="20" depart="20.00" from="521198982" to="-47916247#1"/>
    <trip id="21" depart="21.00" from="-397316195#1" to="-352412039#1"/>
    <trip id="22" depart="22.00" from="-202992520#4" to="-6060903#1"/>
    <trip id="23" depart="23.00" from="397324964#0" to="521200399"/>
    <trip id="24" depart="24.00" from="120478694#0" to="130788204#0"/>
    <trip id="25" depart="25.00" from="-923370378#11" to="-988196201#2"/>
    <trip id="26" depart="26.00" from="50799230#7" to="397303092#0"/>
    <trip id="27" depart="27.00" from="-6055383#2" to="-397303092#2"/>
    <trip id="28" depart="28.00" from="509325914" to="476103804"/>
    <trip id="29" depart="29.00" from="537114618#6" to="-575569267#14"/>
    <trip id="30" depart="30.00" from="397315035#0" to="6057581#0"/>
    <trip id="31" depart="31.00" from="421037430#0" to="695842776#0"/>
    <trip id="32" depart="32.00" from="-468433799#0" to="923370378#5"/>
    <trip id="33" depart="33.00" from="-292148140#4" to="131052383#0"/>
    <trip id="34" depart="34.00" from="-130889749#1" to="520532355#0"/>
    <trip id="35" depart="35.00" from="469159255" to="923370378#10"/>
    <trip id="36" depart="36.00" from="520532349#0" to="696737929#1"/>
    <trip id="37" depart="37.00" from="354079210" to="985067151"/>
    <trip id="38" depart="38.00" from="50429921" to="126303356#0"/>
    <trip id="39" depart="39.00" from="924793627#0" to="130802360#1"/>
</routes>
