<?xml version="1.0" encoding="UTF-8"?>
<!-- generated on 2022-10-26 03:08:23.437750 by $Id$ UNKNOWN
  options: -n /Users/nafiulhassan/veins-5.1/examples/veins/input/washingtondc/20/washingtondc.net.xml -s 2 -e 20 -o /Users/nafiulhassan/veins-5.1/examples/veins/input/washingtondc/seed-2/20/washingtondc.trips.xml
-->
<routes xmlns:xsi="http://www.w3.org/2001/XMLSchema-instance" xsi:noNamespaceSchemaLocation="http://sumo.dlr.de/xsd/routes_file.xsd">
    <trip id="0" depart="0.00" from="698748857#0" to="696198846#1"/>
    <trip id="1" depart="1.00" from="-296355738#0" to="-308739814#1"/>
    <trip id="2" depart="2.00" from="575569267#11" to="50009632"/>
    <trip id="3" depart="3.00" from="468469890#2" to="1008299672"/>
    <trip id="4" depart="4.00" from="423615732#0" to="421268132#0"/>
    <trip id="5" depart="5.00" from="397329570" to="-45838766#0"/>
    <trip id="6" depart="6.00" from="202992519#0" to="130889758#0"/>
    <trip id="7" depart="7.00" from="494988146#2" to="988487223"/>
    <trip id="8" depart="8.00" from="696806631#0" to="354079210"/>
    <trip id="9" depart="9.00" from="24222606" to="-6057581#4"/>
    <trip id="10" depart="10.00" from="-155011691#1" to="-130908283#1"/>
    <trip id="11" depart="11.00" from="297294789#0" to="1049230589"/>
    <trip id="12" depart="12.00" from="130889704#0" to="6052895#0"/>
    <trip id="13" depart="13.00" from="347003229#2" to="397317310#0"/>
    <trip id="14" depart="14.00" from="-575569267#10" to="-130889749#2"/>
    <trip id="15" depart="15.00" from="1054351817" to="-397360056#2"/>
    <trip id="16" depart="16.00" from="323742888" to="998360408#0"/>
    <trip id="17" depart="17.00" from="468469915#0" to="-468469900#0"/>
    <trip id="18" depart="18.00" from="6054252#2" to="509646034#0"/>
    <trip id="19" depart="19.00" from="50260020#4" to="6055551#0"/>
</routes>
