<?xml version="1.0" encoding="UTF-8"?>
<!-- generated on 2022-10-26 03:15:03.394464 by $Id$ UNKNOWN
  options: -n /Users/nafiulhassan/veins-5.1/examples/veins/input/washingtondc/30/washingtondc.net.xml -s 7 -e 200 -o /Users/nafiulhassan/veins-5.1/examples/veins/input/washingtondc/seed-7/200/washingtondc.trips.xml
-->
<routes xmlns:xsi="http://www.w3.org/2001/XMLSchema-instance" xsi:noNamespaceSchemaLocation="http://sumo.dlr.de/xsd/routes_file.xsd">
    <trip id="0" depart="0.00" from="1052908774#0" to="-436136927#6"/>
    <trip id="1" depart="1.00" from="468433796" to="-297382769#3"/>
    <trip id="2" depart="2.00" from="353283535#0" to="130788167#0"/>
    <trip id="3" depart="3.00" from="-296365351#2" to="305660797#3"/>
    <trip id="4" depart="4.00" from="-202992519#2" to="155011689#0"/>
    <trip id="5" depart="5.00" from="-297380211#6" to="-333922766#1"/>
    <trip id="6" depart="6.00" from="146537575#0" to="535546520#0"/>
    <trip id="7" depart="7.00" from="-397321705#1" to="-520468343#3"/>
    <trip id="8" depart="8.00" from="439875858#1" to="696198846#1"/>
    <trip id="9" depart="9.00" from="397327934#0" to="130889758#4"/>
    <trip id="10" depart="10.00" from="925030587" to="-203025090#3"/>
    <trip id="11" depart="11.00" from="589533518#4" to="-920636360#1"/>
    <trip id="12" depart="12.00" from="-423604888#1" to="-397318411#1"/>
    <trip id="13" depart="13.00" from="1047793071" to="520537747"/>
    <trip id="14" depart="14.00" from="-468469897#1" to="397327932#0"/>
    <trip id="15" depart="15.00" from="466349884" to="130788227#0"/>
    <trip id="16" depart="16.00" from="397316176#0" to="-297294789#2"/>
    <trip id="17" depart="17.00" from="-296365351#6" to="-50511365#0"/>
    <trip id="18" depart="18.00" from="468469939#0" to="131448559#0"/>
    <trip id="19" depart="19.00" from="1049253134" to="397327938"/>
    <trip id="20" depart="20.00" from="296355738#0" to="-983121554#1"/>
    <trip id="21" depart="21.00" from="509649677" to="469165485#0"/>
    <trip id="22" depart="22.00" from="-589539518#3" to="397321703#0"/>
    <trip id="23" depart="23.00" from="347003229#0" to="589539536#4"/>
    <trip id="24" depart="24.00" from="49999718#0" to="-854143897#2"/>
    <trip id="25" depart="25.00" from="961869114#0" to="-397318412#1"/>
    <trip id="26" depart="26.00" from="131052512#3" to="50429928"/>
    <trip id="27" depart="27.00" from="-436136927#6" to="297444238#0"/>
    <trip id="28" depart="28.00" from="-202992520#4" to="468436769#0"/>
    <trip id="29" depart="29.00" from="50524889#10" to="397321698#0"/>
    <trip id="30" depart="30.00" from="589551086#0" to="1036008539"/>
    <trip id="31" depart="31.00" from="469165488#0" to="397364246#2"/>
    <trip id="32" depart="32.00" from="397327938" to="292148139#0"/>
    <trip id="33" depart="33.00" from="575569268" to="687108617#0"/>
    <trip id="34" depart="34.00" from="297380211#0" to="468434113#2"/>
    <trip id="35" depart="35.00" from="-296365924#1" to="469165488#0"/>
    <trip id="36" depart="36.00" from="468433791#0" to="987879163#0"/>
    <trip id="37" depart="37.00" from="535546520#0" to="-648026207#1"/>
    <trip id="38" depart="38.00" from="130889756#3" to="468436769#0"/>
    <trip id="39" depart="39.00" from="-130802376#2" to="296365351#6"/>
    <trip id="40" depart="40.00" from="-468433799#1" to="-397318410#1"/>
    <trip id="41" depart="41.00" from="-296365351#5" to="50524889#10"/>
    <trip id="42" depart="42.00" from="-397327937#1" to="-589551086#2"/>
    <trip id="43" depart="43.00" from="130889758#3" to="589539534#0"/>
    <trip id="44" depart="44.00" from="-29961168#2" to="237743944#2"/>
    <trip id="45" depart="45.00" from="397316186#0" to="590581593#2"/>
    <trip id="46" depart="46.00" from="535462248" to="589533583#0"/>
    <trip id="47" depart="47.00" from="-6063421#1" to="131052297#3"/>
    <trip id="48" depart="48.00" from="130772943#2" to="590581594#0"/>
    <trip id="49" depart="49.00" from="70948801#3" to="-436136927#6"/>
    <trip id="50" depart="50.00" from="-468441885#1" to="-537114618#1"/>
    <trip id="51" depart="51.00" from="-537114618#4" to="297382770#3"/>
    <trip id="52" depart="52.00" from="409541717" to="-6057421#1"/>
    <trip id="53" depart="53.00" from="-120478695#4" to="131052508#0"/>
    <trip id="54" depart="54.00" from="130802359#0" to="397318416#0"/>
    <trip id="55" depart="55.00" from="696806636#0" to="469154544"/>
    <trip id="56" depart="56.00" from="333922526#2" to="435424522#2"/>
    <trip id="57" depart="57.00" from="468469923#0" to="-292148140#2"/>
    <trip id="58" depart="58.00" from="6054895#0" to="50799230#2"/>
    <trip id="59" depart="59.00" from="589551073#0" to="509646035#0"/>
    <trip id="60" depart="60.00" from="130889758#6" to="130889760#0"/>
    <trip id="61" depart="61.00" from="-353283601" to="439875858#6"/>
    <trip id="62" depart="62.00" from="-297294784#2" to="-297380210#1"/>
    <trip id="63" depart="63.00" from="-50511365#7" to="-468433792#1"/>
    <trip id="64" depart="64.00" from="125568108#3" to="-26707840#1"/>
    <trip id="65" depart="65.00" from="-1008299672" to="-436136927#6"/>
    <trip id="66" depart="66.00" from="-352412093#2" to="130772954"/>
    <trip id="67" depart="67.00" from="-130908059#2" to="589539536#3"/>
    <trip id="68" depart="68.00" from="436136927#3" to="-436136927#1"/>
    <trip id="69" depart="69.00" from="-590581594#1" to="126303361#0"/>
    <trip id="70" depart="70.00" from="130788192#0" to="-397321701#2"/>
    <trip id="71" depart="71.00" from="589533502#0" to="987879163#0"/>
    <trip id="72" depart="72.00" from="297294792#0" to="297382769#4"/>
    <trip id="73" depart="73.00" from="-321444898" to="-352412106"/>
    <trip id="74" depart="74.00" from="126303356#0" to="-6057544#2"/>
    <trip id="75" depart="75.00" from="537114618#6" to="-466359338#3"/>
    <trip id="76" depart="76.00" from="-130889749#1" to="696806632#0"/>
    <trip id="77" depart="77.00" from="347003330#0" to="-435424522#1"/>
    <trip id="78" depart="78.00" from="397303090#0" to="-130908283#1"/>
    <trip id="79" depart="79.00" from="347003330#0" to="935806772#0"/>
    <trip id="80" depart="80.00" from="589539517#0" to="469159258#1"/>
    <trip id="81" depart="81.00" from="-6057421#1" to="130788167#1"/>
    <trip id="82" depart="82.00" from="-468433799#0" to="50524890#2"/>
    <trip id="83" depart="83.00" from="352412100" to="50797098#8"/>
    <trip id="84" depart="84.00" from="120478529#0" to="-520468343#3"/>
    <trip id="85" depart="85.00" from="520537747" to="983121554#0"/>
    <trip id="86" depart="86.00" from="589533515#0" to="520468342"/>
    <trip id="87" depart="87.00" from="535462247#1" to="50260020#6"/>
    <trip id="88" depart="88.00" from="-521198981" to="323742930#1"/>
    <trip id="89" depart="89.00" from="130772928#0" to="-130927087#2"/>
    <trip id="90" depart="90.00" from="-130908283#2" to="-6061944#3"/>
    <trip id="91" depart="91.00" from="-6055551#1" to="469159255"/>
    <trip id="92" depart="92.00" from="70948801#0" to="203119343"/>
    <trip id="93" depart="93.00" from="6062881#0" to="985067151"/>
    <trip id="94" depart="94.00" from="698748856#0" to="130788155#0"/>
    <trip id="95" depart="95.00" from="-520463951#1" to="-520537748"/>
    <trip id="96" depart="96.00" from="-47920785#1" to="-50422161"/>
    <trip id="97" depart="97.00" from="438958617#9" to="6054886#0"/>
    <trip id="98" depart="98.00" from="576620616" to="297380211#0"/>
    <trip id="99" depart="99.00" from="468433798#0" to="510723128#1"/>
    <trip id="100" depart="100.00" from="-305660797#4" to="468433804"/>
    <trip id="101" depart="101.00" from="6056366#0" to="50799230#7"/>
    <trip id="102" depart="102.00" from="50429923" to="297368625#3"/>
    <trip id="103" depart="103.00" from="-468469890#1" to="509325914"/>
    <trip id="104" depart="104.00" from="120478695#3" to="513235538#0"/>
    <trip id="105" depart="105.00" from="923370378#3" to="130889758#2"/>
    <trip id="106" depart="106.00" from="130908289#3" to="695842776#1"/>
    <trip id="107" depart="107.00" from="496467787#0" to="-468433804"/>
    <trip id="108" depart="108.00" from="-397327933" to="-436136927#6"/>
    <trip id="109" depart="109.00" from="6055551#0" to="520468342"/>
    <trip id="110" depart="110.00" from="-435424521#1" to="535546520#0"/>
    <trip id="111" depart="111.00" from="961869114#0" to="468433797#3"/>
    <trip id="112" depart="112.00" from="130285121#0" to="397303090#0"/>
    <trip id="113" depart="113.00" from="-397327939#1" to="-130788155#2"/>
    <trip id="114" depart="114.00" from="923370378#1" to="466359339#1"/>
    <trip id="115" depart="115.00" from="347003327#0" to="6061544"/>
    <trip id="116" depart="116.00" from="202992520#8" to="589539534#0"/>
    <trip id="117" depart="117.00" from="537114618#0" to="-50799230#5"/>
    <trip id="118" depart="118.00" from="-590581593#5" to="-923370378#4"/>
    <trip id="119" depart="119.00" from="-575569267#6" to="397327939#0"/>
    <trip id="120" depart="120.00" from="-6055551#1" to="131052508#0"/>
    <trip id="121" depart="121.00" from="-397327939#1" to="6056363#2"/>
    <trip id="122" depart="122.00" from="130285136#0" to="296355738#0"/>
    <trip id="123" depart="123.00" from="397329577#0" to="6055383#0"/>
    <trip id="124" depart="124.00" from="131076097#0" to="6057544#2"/>
    <trip id="125" depart="125.00" from="305660797#2" to="347003229#0"/>
    <trip id="126" depart="126.00" from="347003227" to="-130788195"/>
    <trip id="127" depart="127.00" from="203025090#2" to="-468469900#1"/>
    <trip id="128" depart="128.00" from="-120478695#3" to="509649677"/>
    <trip id="129" depart="129.00" from="-468434115#1" to="297296762#0"/>
    <trip id="130" depart="130.00" from="49887645#0" to="397316203#0"/>
    <trip id="131" depart="131.00" from="1060936416#0" to="323742930#2"/>
    <trip id="132" depart="132.00" from="397317311#0" to="50799689#0"/>
    <trip id="133" depart="133.00" from="-354202945#1" to="397317310#0"/>
    <trip id="134" depart="134.00" from="-589551092#0" to="-6060903#4"/>
    <trip id="135" depart="135.00" from="50797098#0" to="305660797#3"/>
    <trip id="136" depart="136.00" from="397319278#0" to="50511237#0"/>
    <trip id="137" depart="137.00" from="6057193#0" to="203025089#0"/>
    <trip id="138" depart="138.00" from="435424522#4" to="305660797#0"/>
    <trip id="139" depart="139.00" from="323742930#2" to="469159255"/>
    <trip id="140" depart="140.00" from="292148140#3" to="347003327#0"/>
    <trip id="141" depart="141.00" from="297382769#4" to="6063421#4"/>
    <trip id="142" depart="142.00" from="470165122" to="589551072#0"/>
    <trip id="143" depart="143.00" from="648026207#0" to="-6054886#1"/>
    <trip id="144" depart="144.00" from="397318415#0" to="648026207#0"/>
    <trip id="145" depart="145.00" from="575569268" to="-397363850#0"/>
    <trip id="146" depart="146.00" from="-397318416#2" to="202992524#3"/>
    <trip id="147" depart="147.00" from="-297382769#3" to="-575569267#6"/>
    <trip id="148" depart="148.00" from="-297382769#6" to="468441885#0"/>
    <trip id="149" depart="149.00" from="509325914" to="6054255#2"/>
    <trip id="150" depart="150.00" from="-438958617#6" to="47916247#3"/>
    <trip id="151" depart="151.00" from="468434120#0" to="-423602679"/>
    <trip id="152" depart="152.00" from="590581668#0" to="86472738#0"/>
    <trip id="153" depart="153.00" from="-514191882#1" to="696806633#2"/>
    <trip id="154" depart="154.00" from="130908283#2" to="297401522#0"/>
    <trip id="155" depart="155.00" from="987878092" to="537114618#5"/>
    <trip id="156" depart="156.00" from="-466359338#3" to="146537579#0"/>
    <trip id="157" depart="157.00" from="333922526#2" to="120478696#0"/>
    <trip id="158" depart="158.00" from="-47916249#2" to="1049235346#0"/>
    <trip id="159" depart="159.00" from="494988146#0" to="-130788227#1"/>
    <trip id="160" depart="160.00" from="397317307#0" to="202992522#2"/>
    <trip id="161" depart="161.00" from="-130788195" to="1060936416#0"/>
    <trip id="162" depart="162.00" from="438958617#9" to="321477125#0"/>
    <trip id="163" depart="163.00" from="-297294792#2" to="983121554#0"/>
    <trip id="164" depart="164.00" from="509326344#0" to="921887474#0"/>
    <trip id="165" depart="165.00" from="-354079210" to="-6057544#5"/>
    <trip id="166" depart="166.00" from="-202992520#6" to="50797098#8"/>
    <trip id="167" depart="167.00" from="-6059056#2" to="-397327938"/>
    <trip id="168" depart="168.00" from="131448559#0" to="6056366#0"/>
    <trip id="169" depart="169.00" from="535462248" to="-6054355#1"/>
    <trip id="170" depart="170.00" from="-436136927#1" to="6057581#0"/>
    <trip id="171" depart="171.00" from="397321705#0" to="469165487"/>
    <trip id="172" depart="172.00" from="-333922526#3" to="-296365351#2"/>
    <trip id="173" depart="173.00" from="469159256#0" to="131076063#0"/>
    <trip id="174" depart="174.00" from="-297382769#3" to="6063274#0"/>
    <trip id="175" depart="175.00" from="45838766#0" to="514191882#0"/>
    <trip id="176" depart="176.00" from="-305660797#1" to="589533515#0"/>
    <trip id="177" depart="177.00" from="-297368625#2" to="589533564#0"/>
    <trip id="178" depart="178.00" from="296355738#1" to="120478696#0"/>
    <trip id="179" depart="179.00" from="397316524#0" to="6059056#0"/>
    <trip id="180" depart="180.00" from="-6057595#2" to="-397327937#1"/>
    <trip id="181" depart="181.00" from="347003328#0" to="-575569267#16"/>
    <trip id="182" depart="182.00" from="-397304550" to="-466359338#3"/>
    <trip id="183" depart="183.00" from="-252140542#2" to="-50260020#1"/>
    <trip id="184" depart="184.00" from="1049226224#0" to="-988196201#2"/>
    <trip id="185" depart="185.00" from="50511365#2" to="-920636360#1"/>
    <trip id="186" depart="186.00" from="305660797#0" to="-468450579#1"/>
    <trip id="187" depart="187.00" from="126303366#0" to="-130788192#2"/>
    <trip id="188" depart="188.00" from="-590581593#1" to="-130788158#1"/>
    <trip id="189" depart="189.00" from="50260020#0" to="397315035#0"/>
    <trip id="190" depart="190.00" from="-476103806" to="297296762#5"/>
    <trip id="191" depart="191.00" from="6062204" to="-382850737#1"/>
    <trip id="192" depart="192.00" from="535462248" to="146537585#0"/>
    <trip id="193" depart="193.00" from="298848145#0" to="542269314#0"/>
    <trip id="194" depart="194.00" from="130889759#0" to="305660797#2"/>
    <trip id="195" depart="195.00" from="469159256#0" to="971624710"/>
    <trip id="196" depart="196.00" from="126303356#0" to="537114618#3"/>
    <trip id="197" depart="197.00" from="476103813#0" to="454815093#0"/>
    <trip id="198" depart="198.00" from="130908290#0" to="126303361#3"/>
    <trip id="199" depart="199.00" from="-274296704#1" to="-397327938"/>
</routes>
