<?xml version="1.0" encoding="UTF-8"?>
<!-- generated on 2022-10-26 03:15:31.554444 by $Id$ UNKNOWN
  options: -n /Users/nafiulhassan/veins-5.1/examples/veins/input/washingtondc/30/washingtondc.net.xml -s 14 -e 200 -o /Users/nafiulhassan/veins-5.1/examples/veins/input/washingtondc/seed-14/200/washingtondc.trips.xml
-->
<routes xmlns:xsi="http://www.w3.org/2001/XMLSchema-instance" xsi:noNamespaceSchemaLocation="http://sumo.dlr.de/xsd/routes_file.xsd">
    <trip id="0" depart="0.00" from="-382850737#1" to="469165490#2"/>
    <trip id="1" depart="1.00" from="468433797#3" to="6063421#2"/>
    <trip id="2" depart="2.00" from="-6059056#4" to="-6054255#1"/>
    <trip id="3" depart="3.00" from="50260020#2" to="468433798#0"/>
    <trip id="4" depart="4.00" from="1026906900" to="468469935#2"/>
    <trip id="5" depart="5.00" from="130908282" to="50797098#3"/>
    <trip id="6" depart="6.00" from="-397318411#1" to="-520468343#3"/>
    <trip id="7" depart="7.00" from="6055382#0" to="130285138#0"/>
    <trip id="8" depart="8.00" from="-6056532#2" to="520463951#0"/>
    <trip id="9" depart="9.00" from="45838762#1" to="-436136927#4"/>
    <trip id="10" depart="10.00" from="397316204#0" to="468434113#2"/>
    <trip id="11" depart="11.00" from="-468433796" to="466359342#0"/>
    <trip id="12" depart="12.00" from="-397321700#2" to="120478695#3"/>
    <trip id="13" depart="13.00" from="-305660797#1" to="-50422161"/>
    <trip id="14" depart="14.00" from="935806772#2" to="130908283#3"/>
    <trip id="15" depart="15.00" from="987878092" to="202992520#7"/>
    <trip id="16" depart="16.00" from="435106239#0" to="589539535#0"/>
    <trip id="17" depart="17.00" from="469157093" to="-397316176#1"/>
    <trip id="18" depart="18.00" from="409541717" to="439875858#6"/>
    <trip id="19" depart="19.00" from="-468469897#1" to="-347003327#2"/>
    <trip id="20" depart="20.00" from="589551073#0" to="321477125#4"/>
    <trip id="21" depart="21.00" from="-47916247#1" to="26572919#0"/>
    <trip id="22" depart="22.00" from="-510723128#2" to="509646035#2"/>
    <trip id="23" depart="23.00" from="305660797#1" to="-352831076#4"/>
    <trip id="24" depart="24.00" from="535462247#1" to="-333922526#3"/>
    <trip id="25" depart="25.00" from="-648026207#1" to="-130908283#2"/>
    <trip id="26" depart="26.00" from="50428539#6" to="-397316203#1"/>
    <trip id="27" depart="27.00" from="347003229#2" to="-347003226"/>
    <trip id="28" depart="28.00" from="297400412#0" to="468469939#0"/>
    <trip id="29" depart="29.00" from="353283534#1" to="26707982#0"/>
    <trip id="30" depart="30.00" from="297759292#0" to="202992520#3"/>
    <trip id="31" depart="31.00" from="421075190#1" to="-347003327#2"/>
    <trip id="32" depart="32.00" from="297380211#0" to="-543909823#1"/>
    <trip id="33" depart="33.00" from="589539519#2" to="6063420#0"/>
    <trip id="34" depart="34.00" from="-297368625#2" to="-423602679"/>
    <trip id="35" depart="35.00" from="476103806" to="397319284#0"/>
    <trip id="36" depart="36.00" from="-130788227#3" to="470165122"/>
    <trip id="37" depart="37.00" from="695842775" to="131052512#3"/>
    <trip id="38" depart="38.00" from="126303366#0" to="397319281#0"/>
    <trip id="39" depart="39.00" from="6063421#0" to="-6057421#3"/>
    <trip id="40" depart="40.00" from="1008299672" to="-469165492#1"/>
    <trip id="41" depart="41.00" from="439875858#6" to="297294784#0"/>
    <trip id="42" depart="42.00" from="-6054255#5" to="130889749#0"/>
    <trip id="43" depart="43.00" from="-131076063#2" to="1036008535"/>
    <trip id="44" depart="44.00" from="983121553#1" to="397327939#0"/>
    <trip id="45" depart="45.00" from="-70948803#2" to="6062397#0"/>
    <trip id="46" depart="46.00" from="130772943#1" to="-590581593#3"/>
    <trip id="47" depart="47.00" from="-131076063#2" to="-435424522#1"/>
    <trip id="48" depart="48.00" from="-494988146#2" to="-535546520#1"/>
    <trip id="49" depart="49.00" from="589539537#0" to="-6057544#1"/>
    <trip id="50" depart="50.00" from="-589551092#0" to="421076402"/>
    <trip id="51" depart="51.00" from="6057544#3" to="-923370378#0"/>
    <trip id="52" depart="52.00" from="50511365#6" to="130788195"/>
    <trip id="53" depart="53.00" from="397319276" to="409546597"/>
    <trip id="54" depart="54.00" from="648026207#0" to="50429928"/>
    <trip id="55" depart="55.00" from="321477125#4" to="575569267#3"/>
    <trip id="56" depart="56.00" from="130788207#2" to="130889702#3"/>
    <trip id="57" depart="57.00" from="74100353#0" to="354202945#0"/>
    <trip id="58" depart="58.00" from="50797098#3" to="1047793071"/>
    <trip id="59" depart="59.00" from="6057421#2" to="434444693#0"/>
    <trip id="60" depart="60.00" from="-589551086#2" to="6061544"/>
    <trip id="61" depart="61.00" from="297296762#0" to="121863780#0"/>
    <trip id="62" depart="62.00" from="-6057544#2" to="-353283601"/>
    <trip id="63" depart="63.00" from="-50260020#1" to="469157093"/>
    <trip id="64" depart="64.00" from="-421076402" to="-6054355#1"/>
    <trip id="65" depart="65.00" from="252140542#3" to="354079210"/>
    <trip id="66" depart="66.00" from="130889704#0" to="508158268"/>
    <trip id="67" depart="67.00" from="-6054255#6" to="130788195"/>
    <trip id="68" depart="68.00" from="146537578#0" to="-397327937#1"/>
    <trip id="69" depart="69.00" from="-520468342" to="-435424522#1"/>
    <trip id="70" depart="70.00" from="49887645#0" to="-435424522#1"/>
    <trip id="71" depart="71.00" from="468469887" to="-520468342"/>
    <trip id="72" depart="72.00" from="466359342#3" to="468433796"/>
    <trip id="73" depart="73.00" from="130285135#0" to="6061387#3"/>
    <trip id="74" depart="74.00" from="468434113#0" to="397316204#0"/>
    <trip id="75" depart="75.00" from="-203025090#1" to="130908289#5"/>
    <trip id="76" depart="76.00" from="-6057581#4" to="297294789#0"/>
    <trip id="77" depart="77.00" from="6061944#0" to="589533582"/>
    <trip id="78" depart="78.00" from="-296786737#1" to="468469915#1"/>
    <trip id="79" depart="79.00" from="6062201#0" to="353283535#2"/>
    <trip id="80" depart="80.00" from="-347003329#2" to="589539518#2"/>
    <trip id="81" depart="81.00" from="146537585#0" to="961869114#0"/>
    <trip id="82" depart="82.00" from="589551073#0" to="535718852#0"/>
    <trip id="83" depart="83.00" from="6061387#0" to="-297380210#3"/>
    <trip id="84" depart="84.00" from="509646035#2" to="-998338690#5"/>
    <trip id="85" depart="85.00" from="-397329580#1" to="130802371#0"/>
    <trip id="86" depart="86.00" from="397364246#2" to="-120478695#3"/>
    <trip id="87" depart="87.00" from="26707840#0" to="50799689#0"/>
    <trip id="88" depart="88.00" from="298848145#0" to="345633936#0"/>
    <trip id="89" depart="89.00" from="-983121554#5" to="921887474#0"/>
    <trip id="90" depart="90.00" from="-589551092#0" to="468469923#0"/>
    <trip id="91" depart="91.00" from="466359342#0" to="-1008299672"/>
    <trip id="92" depart="92.00" from="988487226" to="-537114618#8"/>
    <trip id="93" depart="93.00" from="985426724" to="6059056#3"/>
    <trip id="94" depart="94.00" from="6054895#3" to="589533512#1"/>
    <trip id="95" depart="95.00" from="130908283#1" to="203025090#2"/>
    <trip id="96" depart="96.00" from="126303364" to="6062204"/>
    <trip id="97" depart="97.00" from="-130927087#2" to="-397363850#0"/>
    <trip id="98" depart="98.00" from="70948801#0" to="520468342"/>
    <trip id="99" depart="99.00" from="476103812" to="888235719#0"/>
    <trip id="100" depart="100.00" from="347003227" to="542269372#0"/>
    <trip id="101" depart="101.00" from="203119345#0" to="6054895#0"/>
    <trip id="102" depart="102.00" from="-297380211#6" to="202992520#5"/>
    <trip id="103" depart="103.00" from="397327934#0" to="509466050#0"/>
    <trip id="104" depart="104.00" from="131448559#0" to="468469919#0"/>
    <trip id="105" depart="105.00" from="920636360#0" to="131052386#6"/>
    <trip id="106" depart="106.00" from="-496467787#1" to="-131052297#2"/>
    <trip id="107" depart="107.00" from="589533583#0" to="297296770#0"/>
    <trip id="108" depart="108.00" from="130889757#0" to="323742932"/>
    <trip id="109" depart="109.00" from="-397318415#1" to="-520468342"/>
    <trip id="110" depart="110.00" from="-543909823#1" to="-6053702#4"/>
    <trip id="111" depart="111.00" from="589533563#0" to="-589539523#2"/>
    <trip id="112" depart="112.00" from="-333922765#2" to="589539518#2"/>
    <trip id="113" depart="113.00" from="397318413" to="-130908283#2"/>
    <trip id="114" depart="114.00" from="468469915#1" to="468469946#0"/>
    <trip id="115" depart="115.00" from="468433794" to="50710195#0"/>
    <trip id="116" depart="116.00" from="131520206#0" to="-520468347#3"/>
    <trip id="117" depart="117.00" from="50429907" to="436136930#0"/>
    <trip id="118" depart="118.00" from="476103806" to="-468469900#4"/>
    <trip id="119" depart="119.00" from="130802362#0" to="469157092"/>
    <trip id="120" depart="120.00" from="130889755#0" to="421075190#3"/>
    <trip id="121" depart="121.00" from="297380210#0" to="50429924"/>
    <trip id="122" depart="122.00" from="130285119#0" to="298832235#4"/>
    <trip id="123" depart="123.00" from="537114618#6" to="1033847614#3"/>
    <trip id="124" depart="124.00" from="-468441884" to="454817812"/>
    <trip id="125" depart="125.00" from="-397329575#1" to="589533515#2"/>
    <trip id="126" depart="126.00" from="-6061387#2" to="6055383#0"/>
    <trip id="127" depart="127.00" from="352831076#0" to="-438958617#4"/>
    <trip id="128" depart="128.00" from="345633935#7" to="468469927#2"/>
    <trip id="129" depart="129.00" from="297759292#1" to="442066186#0"/>
    <trip id="130" depart="130.00" from="130788227#2" to="70948803#0"/>
    <trip id="131" depart="131.00" from="-468441158#1" to="509646035#0"/>
    <trip id="132" depart="132.00" from="-130889749#2" to="305660797#3"/>
    <trip id="133" depart="133.00" from="-297368625#2" to="-397329572#1"/>
    <trip id="134" depart="134.00" from="397364246#2" to="6055383#0"/>
    <trip id="135" depart="135.00" from="1048252755#0" to="130908283#2"/>
    <trip id="136" depart="136.00" from="297380214#0" to="421077028#0"/>
    <trip id="137" depart="137.00" from="130285121#0" to="126303366#0"/>
    <trip id="138" depart="138.00" from="589533515#2" to="397316195#0"/>
    <trip id="139" depart="139.00" from="130285133#0-AddedOnRampEdge" to="520537749-AddedOnRampEdge"/>
    <trip id="140" depart="140.00" from="998360408#0" to="146537585#0"/>
    <trip id="141" depart="141.00" from="-130788167#0" to="-998338690#5"/>
    <trip id="142" depart="142.00" from="6054355#0" to="-468434115#1"/>
    <trip id="143" depart="143.00" from="-494988146#1" to="509326253#0"/>
    <trip id="144" depart="144.00" from="-397316195#1" to="583705854"/>
    <trip id="145" depart="145.00" from="-520537748" to="130889749#0"/>
    <trip id="146" depart="146.00" from="421075190#0" to="-397316180#1"/>
    <trip id="147" depart="147.00" from="50799230#0" to="202992520#7"/>
    <trip id="148" depart="148.00" from="50710195#0" to="50511365#3"/>
    <trip id="149" depart="149.00" from="-298832235#2" to="535462247#1"/>
    <trip id="150" depart="150.00" from="535520845#2" to="-575569267#8"/>
    <trip id="151" depart="151.00" from="409551583" to="-50511365#0"/>
    <trip id="152" depart="152.00" from="354079210" to="50429920"/>
    <trip id="153" depart="153.00" from="130889684#0" to="347003327#0"/>
    <trip id="154" depart="154.00" from="-397329570" to="589533564#0"/>
    <trip id="155" depart="155.00" from="439875857#0" to="537114618#0"/>
    <trip id="156" depart="156.00" from="-29961168#2" to="50428543#0"/>
    <trip id="157" depart="157.00" from="-333922765#2" to="397316203#0"/>
    <trip id="158" depart="158.00" from="-535718852#1" to="6054895#2"/>
    <trip id="159" depart="159.00" from="-382850737#1" to="297296751#0"/>
    <trip id="160" depart="160.00" from="297368443#0" to="130889704#1"/>
    <trip id="161" depart="161.00" from="-297294792#2" to="468434120#0"/>
    <trip id="162" depart="162.00" from="923370378#3" to="130772943#0"/>
    <trip id="163" depart="163.00" from="6054886#0" to="120478696#0"/>
    <trip id="164" depart="164.00" from="-6060903#2" to="26707982#0"/>
    <trip id="165" depart="165.00" from="923370378#5" to="50799230#0"/>
    <trip id="166" depart="166.00" from="45838763#0" to="-202992520#6"/>
    <trip id="167" depart="167.00" from="292148139#0" to="-130788158#1"/>
    <trip id="168" depart="168.00" from="-296786737#1" to="130802360#0"/>
    <trip id="169" depart="169.00" from="-589539518#1" to="-354079210"/>
    <trip id="170" depart="170.00" from="323742930#1" to="50799230#7"/>
    <trip id="171" depart="171.00" from="6059056#0" to="6057421#0"/>
    <trip id="172" depart="172.00" from="146537585#0" to="-468450579#1"/>
    <trip id="173" depart="173.00" from="864614823#0" to="131052512#3"/>
    <trip id="174" depart="174.00" from="126303361#0" to="535462248"/>
    <trip id="175" depart="175.00" from="397318413" to="696806633#2"/>
    <trip id="176" depart="176.00" from="476103803" to="695842776#0"/>
    <trip id="177" depart="177.00" from="-438958617#11" to="648026207#0"/>
    <trip id="178" depart="178.00" from="354436361#2" to="469159258#2"/>
    <trip id="179" depart="179.00" from="-998360408#0" to="-589539518#1"/>
    <trip id="180" depart="180.00" from="-983121554#5" to="-468433804"/>
    <trip id="181" depart="181.00" from="756406654#0" to="-397318415#1"/>
    <trip id="182" depart="182.00" from="-589533512#3" to="439875858#4"/>
    <trip id="183" depart="183.00" from="-50431293#1" to="-509466050#2"/>
    <trip id="184" depart="184.00" from="-6053702#1" to="-537114618#4"/>
    <trip id="185" depart="185.00" from="-126303361#7" to="50260020#6"/>
    <trip id="186" depart="186.00" from="468434114#0" to="1033847614#0"/>
    <trip id="187" depart="187.00" from="6054886#0" to="397317304"/>
    <trip id="188" depart="188.00" from="-514191883#2" to="864614823#0"/>
    <trip id="189" depart="189.00" from="-535546520#1" to="520532355#0"/>
    <trip id="190" depart="190.00" from="521200399" to="-120478419#1"/>
    <trip id="191" depart="191.00" from="583705856#0" to="131052508#3"/>
    <trip id="192" depart="192.00" from="305660797#3" to="695842776#0"/>
    <trip id="193" depart="193.00" from="292148139#0" to="-575569267#8"/>
    <trip id="194" depart="194.00" from="-24238018#5" to="590581668#0"/>
    <trip id="195" depart="195.00" from="296365351#0" to="476103812"/>
    <trip id="196" depart="196.00" from="466349886#3" to="954271698#0"/>
    <trip id="197" depart="197.00" from="6062876#0" to="6062204"/>
    <trip id="198" depart="198.00" from="321444900" to="6056363#2"/>
    <trip id="199" depart="199.00" from="1033847615#0" to="-397327121#1"/>
</routes>
