<?xml version="1.0" encoding="UTF-8"?>

<!-- generated on 2022-10-26 03:14:48 by Eclipse SUMO duarouter Version 1.10.0
	<routes>

    <input>
        <net-file value="/Users/nafiulhassan/veins-5.1/examples/veins/input/washingtondc/30/washingtondc.net.xml"/>
        <route-files value="/Users/nafiulhassan/veins-5.1/examples/veins/input/washingtondc/seed-4/30/washingtondc.trips.xml"/>
    </input>

    <output>
        <output-file value="/Users/nafiulhassan/veins-5.1/examples/veins/input/washingtondc/seed-4/30/washingtondc.rou.xml"/>
        <alternatives-output value="/Users/nafiulhassan/veins-5.1/examples/veins/input/washingtondc/seed-4/30/washingtondc.rou.alt.xml"/>
    </output>

    <report>
        <ignore-errors value="true"/>
    </report>

</configuration>
-->

	<routes>
	<vehicle id="0" depart="0.00">
        <route edges="-575569267#10 -575569267#8 -575569267#6 -575569267#4 520463951#0 520463951#2 479469615#0 535546520#0 535546520#3 347003226 -352412039#1 -298815729#1 -476103813#1 -352412083 -126303356#1 -298832261#2 -298832254#2 -476103809#1 354202945#0 352411913#0 -352412093#2 -421061860 -520537747 -520537748 -353283601"/>
    </vehicle>
	<vehicle id="1" depart="0.00">
        <route edges="130908059#0 120478695#0 120478695#3 120478695#4 120478695#5 468441885#0 468441885#2 202992519#0 -6057595#2 -988196201#2 -6062204 6062876#0 509325421 468450542 130285122#0 126303355#0 347003228#0 347003229#0 347003229#2 589551073#0 1051018092#0 345633934 1051018093#0 589539535#0 589533502#0 468434122#0 468434122#2 695842775 469157093 469157092 468434120#0 345633935#0 345633935#3 345633935#5 -438958617#8"/>
    </vehicle>
	<vehicle id="2" depart="0.00">
        <route edges="-297368625#2 131052297#3 26572919#0 26572919#3 297380214#3 -297380210#3 -297380210#1 -589539518#3 -589539518#1 -589533563#2 -347003330#6 -347003330#3 397316186#0 397316195#0 397316204#0 347003327#0 397327124#0 468433796 397327121#0 203119342#0 468433795#0 723610179 -476103813#1 -352412083 -126303356#1 -298832261#2 -298832254#2 -476103809#1 354202945#0 352411913#0 130908283#0"/>
    </vehicle>
	<vehicle id="3" depart="0.00">
        <route edges="6057581#0 -6057581#1 45838762#1 971624710 6062876#0 252140542#0 252140542#3 589539519#0 589539519#2 589539517#0 297444238#0 542269314#0 509649677 397317304 397317307#0 297444235#0 510723128#1 510723128#2"/>
    </vehicle>
	<vehicle id="4" depart="0.00">
        <route edges="50524889#15 50524889#17 576620616 -345633936#1 543909823#0 985426725#0 985426724 468436769#0 6056069#0 589533583#0 589539536#0 589539536#2 589539536#3 589539536#4 590581668#0 590581668#2 1049842802#0 1049842803 1049842804 589539534#0 1049287312#0 1049287312#2 126303354#0 126303354#2 345709542#0 1048676964#0 298848145#0 1047793071 298814315#0 508158270#0 421268132#0 439875857#0 590598870#0 509326776#0 650605162 6062204 988196201#0 6057595#0 202992520#2 202992520#3 520468342 -520468342"/>
    </vehicle>
	<vehicle id="5" depart="0.00">
        <route edges="353283535#2 469159257#0 469159256#0 469159256#3 469159259 436136927#5 436136927#6 436136927#7 121980352 -520532363 -6060903#4 -6060903#2"/>
    </vehicle>
	<vehicle id="6" depart="0.00">
        <route edges="-468434116#1 6062397#0 6063274#0 1049303874#0 130889755#0 130889756#0 130889756#3 130889756#5 130889756#7 130889757#0 698748857#0 589539536#0 589539536#2 589539536#3 589539536#4 590581668#0 590581668#2 1049842802#0 1049842803 1049842804 589539534#0 1049287312#0 1049287312#2 126303354#0 126303354#2 345709542#0 1048676964#0 298848145#0 130285121#0 508158271 508158272#0 50260020#0 50260020#2 50260020#4 50260020#6 -297382770#5 -297382770#2 297382769#0 297382769#4 130802359#0 130802359#2 470165122 -382850737#1"/>
    </vehicle>
	<vehicle id="7" depart="0.00">
        <route edges="-509645504#0 468450580#0 509645504#1 509645504#2 297444228#0 297759292#0 297759292#1 409546597 130285135#0 397319284#0 397319281#0 436271294#0 409541717 50799606#0 397319279#0 397319282#0 397319286#0 -305368640#1 -998360408#3 -998360408#0 -397304550 -120478418#2 6055551#0 923370378#0 923370378#1 6054252#0 6054252#2 130889684#0 509326252#0 296971737#0 -130907982#1 -6053702#4 -6053702#2 -6053702#1 469151751 423602319#0 6059056#0 6059056#2"/>
    </vehicle>
	<vehicle id="8" depart="0.00">
        <route edges="537114618#6 537114618#9 469165490#0 469165490#2 590581668#0 590581668#2 1049842802#0 1049842803 1049842804 589539534#0 1049287312#0 1049287312#2 126303354#0 126303354#2 345709542#0 1048676964#0 298848145#0 1047793071 298814315#0 508158270#0 421268132#0 439875857#0 590598870#0 509326776#0 650605162 6062204 988196201#0 6057595#0 202992520#2 202992520#3 520468342"/>
    </vehicle>
	<vehicle id="9" depart="0.00">
        <route edges="520463951#2 479469615#0 535546520#0 535546520#3 347003226 521200399 468433791#0 347003227 756406654#0 -468433792#1 -354079210 -468433793#1 354079209#0 987879163#0 508158268 987879162#0 421258870#0 397303090#0 397303092#0 130802371#0 126303362#0 -305368640#1 -998360408#3 998360408#1 -47916243#1"/>
    </vehicle>
	<vehicle id="10" depart="0.00">
        <route edges="1048676964#0 397327124#0 468433796 397327121#0 347003229#0 347003229#2 589551073#0 1051018092#0 345633934 1051018093#0 589539535#0 589533502#0 468434122#0 468434122#2 695842775 469157093 469157092 468434120#0 345633935#0 345633935#3 345633935#5 -438958617#8 -438958617#6 -438958617#4 438958617#3"/>
    </vehicle>
	<vehicle id="11" depart="0.00">
        <route edges="50018069 321477125#3 321477125#4 421075190#1 421075190#2 421075190#3 543909823#0 985426725#0 421076400#0 1048252755#0 589533511"/>
    </vehicle>
	<vehicle id="12" depart="0.00">
        <route edges="590581593#0 590581593#2 590581593#4 -202992520#4 -202992520#2 -6057595#2 -988196201#2 -6062204 6062876#0 509325421 468450542 321444899#0 -321444899#2"/>
    </vehicle>
	<vehicle id="13" depart="0.00">
        <route edges="423615732#0 998360408#0 998360408#1 397315033#0 -126303362#1 -130802371#2 -347003328#2 347003330#0 347003330#4 589533563#0 589539518#0 589539518#2 297380210#0 297380210#2 -297380214#6 -297380214#2 -397329572#1 -397329570 -397329575#1 120478695#0 120478695#3 120478695#4 120478695#5 468450553#0"/>
    </vehicle>
	<vehicle id="14" depart="0.00">
        <route edges="321444902#3 -130927087#2 130889749#0 130889749#2 397316524#0 -397316522 -298814317#2 468433794 397319278#0 298814316 454817812 146537575#0 397319276 297456132#0 397324964#0 397324962 203025090#0 203025090#2 -468450579#1"/>
    </vehicle>
	<vehicle id="15" depart="0.00">
        <route edges="297380210#2 -297380210#3 -297380210#1 -589539518#3 -589539518#1 -347003329#2 -333922526#3"/>
    </vehicle>
	<vehicle id="16" depart="0.00">
        <route edges="6062204 -6062204 6062876#0 252140542#0 252140542#3 589539519#0 589539519#2 589539517#0"/>
    </vehicle>
	<vehicle id="17" depart="0.00">
        <route edges="397316171 397316180#0 397316186#0 397316195#0 397316204#0 347003327#0 397327124#0 468433796 397327121#0 347003229#0 347003229#2 589551073#0 1051018092#0 345633934 1051018093#0 6060903#0 6060903#2 6060903#3 520532363 -121980352 -436136927#8 -436136927#6 -436136927#5 -436136927#4 -436136927#2 -436136927#1 130889702#0 130889702#3 130889702#4 1052908775#0 -983121554#1"/>
    </vehicle>
	<vehicle id="18" depart="0.00">
        <route edges="6056363#3 130889760#0 6056366#3 130889756#0 130889756#3 130889756#5 130889756#7 130889757#0 698748857#0 589539536#0 589539536#2 589539536#3 589539536#4 590581668#0 590581668#2 1049842802#0 1049842803 1049842804 589539534#0 1049287312#0 1049287312#2 126303354#0 126303354#2 345709542#0 1048676964#0 -347003327#2 -397316204#2 -397316195#1 -397316186#1 -397316180#1 -397316171 -397316176#1 -70948803#2 397319282#0 397319286#0"/>
    </vehicle>
	<vehicle id="19" depart="0.00">
        <route edges="590581594#0 590581593#0 590581593#2 590581593#4 -202992520#4 -202992520#2 -6057595#2 -988196201#2 -6062204 6062876#0 509325421 468450542 130285122#0 126303355#0 347003228#0 347003229#0 347003229#2 589551073#0 1051018092#0 345633934 1051018093#0 589539535#0 589533502#0 468434122#0 468434122#2 695842775 469157093 583698433#0"/>
    </vehicle>
	<vehicle id="20" depart="0.00">
        <route edges="321477125#4 421075190#1 421075190#2 421075190#3 543909823#0 985426725#0 985426724 468436769#0 6056069#0 589533583#0 589539536#0 589539536#2 589539536#3 589539536#4 590581668#0 590581668#2 1049842802#0 1049842803 1049842804 589539534#0 1049287312#0 1049287312#2 126303354#0 126303354#2 345709542#0 1048676964#0 298848145#0 1047793071 298814315#0 508158270#0 -130927087#2 130927087#0"/>
    </vehicle>
	<vehicle id="21" depart="0.00">
        <route edges="421077027 -421077027 -723610179 -468433795#1 -203119342#1 -397327121#1 -468433796 -397327124#1 298848145#0 130285121#0 508158271 508158272#0 130889749#0 130889749#2 397316524#0 -397316522 347003330#4 589533563#0 589539518#0 589539518#2 297380210#0 297380210#2 589539537#0 120478696#0 409551583 146537579#0"/>
    </vehicle>
	<vehicle id="22" depart="0.00">
        <route edges="-466359338#3 -466359338#1 469159256#0 469159256#3 469159259 469159258#0 469159258#1 469159258#2 468469919#0 468469927#0 468469927#2 460536376#0 468469923#0 468469931#0 468469935#0 468469935#2 468469943#0 468469939#0 468469946#0 200019461#0 130788195 130788190 125568108#0 125568108#2 125568108#3 575569267#11 575569267#13 575569267#15 297400412#0 -998338690#5"/>
    </vehicle>
	<vehicle id="23" depart="0.00">
        <route edges="520537748 520537747 421061860 352412093#0 -352411913#1 -354202945#1 476103809#0 298832254#0 298832261#0 126303356#0 476103811 476103813#0 298815729#0 352412039#0 47920785#0 352412073 509646034#0 434444693#0 130788155#0 -6062201#2 971624710 29961183#0 29961183#2 -202992524#4"/>
    </vehicle>
	<vehicle id="24" depart="0.00">
        <route edges="-203025090#1 297368443#0 146537579#0 130285135#0 397319284#0 397319281#0 436271294#0"/>
    </vehicle>
	<vehicle id="25" depart="0.00">
        <route edges="-6063421#5 6063421#4 292148140#3 50511237#0 297296770#0 6056532#0 45838762#1 971624710 6062876#0 509325421 50799689#0 -321444900 -648026207#1 -333922462#1 333922526#0 333922526#2 347003329#0"/>
    </vehicle>
	<vehicle id="26" depart="0.00">
        <route edges="297368443#0 146537579#0 130285135#0 -333922782#1 -333922765#2 -347003329#2 -333922526#3 -333922526#1 333922462#0 648026207#0 321444900 321444898 321444899#0 130788192#0 130788195 130788190 125568108#0 125568108#2 125568108#3"/>
    </vehicle>
	<vehicle id="27" depart="0.00">
        <route edges="989844901#0 6055382#0 687108617#0 435106239#0 469154542 6057417#0 6056366#0 6056366#3 130889756#0 130889756#3 130889756#5 130889756#7 130889757#0 698748857#0 589539536#0 589539536#2 589539536#3 589539536#4 590581668#0 590581668#2 1049842802#0 1049842803 1049842804 589539534#0 1049287312#0 1049287312#2 126303354#0 126303354#2 345709542#0 1048676964#0 298848145#0 1047793071 298814315#0 508158270#0 421268132#0 439875857#0 590598870#0 509326776#0 650605162 6062204 988196201#0 29961175#0 155011691#0 421037430#0 -47916247#4 -47916247#2 -47916247#1"/>
    </vehicle>
	<vehicle id="28" depart="0.00">
        <route edges="131052386#3 6055387#2 297294792#0 589905511#0 397329575#0 397329570 397329572#0 297380214#0 297380214#3 -297380210#3 -297380210#1 -589539518#3 -589539518#1 -347003329#2 -333922526#3 -333922526#1 -50260020#7 -50260020#5 -50260020#3"/>
    </vehicle>
	<vehicle id="29" depart="0.00">
        <route edges="45838763#0 397316203#0 70948803#0 397316176#0 397316171 397316180#0 397316186#0 397316195#0 397316204#0 347003327#0 397327124#0 468433796 397327121#0 347003229#0 347003229#2 589551073#0 1051018092#0 345633934 1051018093#0 6060903#0 6060903#2 -6060903#2"/>
    </vehicle>
</routes>
