<?xml version="1.0" encoding="UTF-8"?>
<!-- generated on 2022-10-26 03:14:34.310007 by $Id$ UNKNOWN
  options: -n /Users/nafiulhassan/veins-5.1/examples/veins/input/washingtondc/30/washingtondc.net.xml -s 0 -e 100 -o /Users/nafiulhassan/veins-5.1/examples/veins/input/washingtondc/seed-0/100/washingtondc.trips.xml
-->
<routes xmlns:xsi="http://www.w3.org/2001/XMLSchema-instance" xsi:noNamespaceSchemaLocation="http://sumo.dlr.de/xsd/routes_file.xsd">
    <trip id="0" depart="0.00" from="583698433#0" to="50429929"/>
    <trip id="1" depart="1.00" from="131076097#0" to="-6054355#1"/>
    <trip id="2" depart="2.00" from="323742930#1" to="130908289#11"/>
    <trip id="3" depart="3.00" from="509325914" to="-985426724"/>
    <trip id="4" depart="4.00" from="297380214#0" to="397327935#0"/>
    <trip id="5" depart="5.00" from="6056363#2" to="29961183#4"/>
    <trip id="6" depart="6.00" from="-698748856#1" to="50429926"/>
    <trip id="7" depart="7.00" from="436136929#2-AddedOnRampEdge" to="-590581593#1"/>
    <trip id="8" depart="8.00" from="6056366#0" to="983121553#1"/>
    <trip id="9" depart="9.00" from="520537745" to="6054895#3"/>
    <trip id="10" depart="10.00" from="1048676964#0" to="49887645#0"/>
    <trip id="11" depart="11.00" from="6054886#0" to="468469935#0"/>
    <trip id="12" depart="12.00" from="297368625#3" to="-352412093#2"/>
    <trip id="13" depart="13.00" from="202992522#0" to="423608853"/>
    <trip id="14" depart="14.00" from="6057204#0" to="864614824#0"/>
    <trip id="15" depart="15.00" from="297380214#3" to="589533584#0"/>
    <trip id="16" depart="16.00" from="-6056532#2" to="520463951#2"/>
    <trip id="17" depart="17.00" from="397316180#0" to="-130772954"/>
    <trip id="18" depart="18.00" from="48018654" to="130889760#0"/>
    <trip id="19" depart="19.00" from="535780677#0" to="468436769#0"/>
    <trip id="20" depart="20.00" from="-1054351818#1" to="298814317#0"/>
    <trip id="21" depart="21.00" from="589539522#0" to="-589539518#1"/>
    <trip id="22" depart="22.00" from="1054351817" to="589539522#0"/>
    <trip id="23" depart="23.00" from="-476103813#1" to="397319276"/>
    <trip id="24" depart="24.00" from="-575569267#16" to="86472738#0"/>
    <trip id="25" depart="25.00" from="520468343#2" to="203119345#0"/>
    <trip id="26" depart="26.00" from="-298832261#2" to="1049287312#0"/>
    <trip id="27" depart="27.00" from="321477125#4" to="6061387#3"/>
    <trip id="28" depart="28.00" from="-397304550" to="397315035#0"/>
    <trip id="29" depart="29.00" from="476103813#0" to="354436361#1"/>
    <trip id="30" depart="30.00" from="520546834#0" to="353283534#0"/>
    <trip id="31" depart="31.00" from="864614823#0" to="421076400#0"/>
    <trip id="32" depart="32.00" from="397363850#1" to="203025090#0"/>
    <trip id="33" depart="33.00" from="421075190#2" to="130889702#4"/>
    <trip id="34" depart="34.00" from="397327932#0" to="-920893151#1"/>
    <trip id="35" depart="35.00" from="-476103806" to="-469165488#1"/>
    <trip id="36" depart="36.00" from="436136927#0" to="468433797#0"/>
    <trip id="37" depart="37.00" from="297380214#0" to="-333922765#2"/>
    <trip id="38" depart="38.00" from="50511364#0" to="589551073#0"/>
    <trip id="39" depart="39.00" from="6057813#0" to="575569267#7"/>
    <trip id="40" depart="40.00" from="6054355#0" to="6057595#0"/>
    <trip id="41" depart="41.00" from="354436361#0" to="130889756#5"/>
    <trip id="42" depart="42.00" from="476103811" to="-6060903#1"/>
    <trip id="43" depart="43.00" from="520537747" to="583705854"/>
    <trip id="44" depart="44.00" from="6054255#0" to="397329578#0"/>
    <trip id="45" depart="45.00" from="696806631#0" to="397327118#0"/>
    <trip id="46" depart="46.00" from="26707982#0" to="468433804"/>
    <trip id="47" depart="47.00" from="988487226" to="6057421#2"/>
    <trip id="48" depart="48.00" from="509646035#2" to="-305660797#0"/>
    <trip id="49" depart="49.00" from="436136927#0" to="297401518#0"/>
    <trip id="50" depart="50.00" from="442066186#0" to="576620616"/>
    <trip id="51" depart="51.00" from="-589533563#2" to="49999716#3"/>
    <trip id="52" depart="52.00" from="-397316524#1" to="-520463951#1"/>
    <trip id="53" depart="53.00" from="510723128#1" to="1060936417"/>
    <trip id="54" depart="54.00" from="521198982" to="-352412093#2"/>
    <trip id="55" depart="55.00" from="-435424521#1" to="469165475"/>
    <trip id="56" depart="56.00" from="-203025089#1" to="397321701#0"/>
    <trip id="57" depart="57.00" from="6056366#0" to="347003329#0"/>
    <trip id="58" depart="58.00" from="468469939#0" to="-130908283#0"/>
    <trip id="59" depart="59.00" from="45838766#1" to="421259825#0"/>
    <trip id="60" depart="60.00" from="397327932#0" to="130889756#3"/>
    <trip id="61" depart="61.00" from="130802359#2" to="961869114#0"/>
    <trip id="62" depart="62.00" from="-155011691#1" to="-130802371#2"/>
    <trip id="63" depart="63.00" from="837279711#0" to="-469154540#1"/>
    <trip id="64" depart="64.00" from="-397321705#1" to="-50799230#2"/>
    <trip id="65" depart="65.00" from="520463956#0" to="6062876#0"/>
    <trip id="66" depart="66.00" from="-130802376#2" to="131076097#0"/>
    <trip id="67" depart="67.00" from="-352412093#2" to="-6054886#1"/>
    <trip id="68" depart="68.00" from="-520463951#1" to="466352083#0"/>
    <trip id="69" depart="69.00" from="130285121#0" to="-468469890#3"/>
    <trip id="70" depart="70.00" from="321444898" to="-202992520#6"/>
    <trip id="71" depart="71.00" from="-352412083" to="985067151"/>
    <trip id="72" depart="72.00" from="-494988146#2" to="130772928#0"/>
    <trip id="73" depart="73.00" from="50018069" to="543909823#0"/>
    <trip id="74" depart="74.00" from="6057581#2" to="-468433803"/>
    <trip id="75" depart="75.00" from="468469900#1" to="864614824#0"/>
    <trip id="76" depart="76.00" from="-296365351#2" to="468469897#0"/>
    <trip id="77" depart="77.00" from="583705854" to="125568108#2"/>
    <trip id="78" depart="78.00" from="-590581593#1" to="409551583"/>
    <trip id="79" depart="79.00" from="203119345#0" to="-468441158#1"/>
    <trip id="80" depart="80.00" from="297368625#0" to="130908290#3"/>
    <trip id="81" depart="81.00" from="397321703#0" to="321444898"/>
    <trip id="82" depart="82.00" from="1049226223#1" to="130285136#0"/>
    <trip id="83" depart="83.00" from="575569267#3" to="-590581593#1"/>
    <trip id="84" depart="84.00" from="397319276" to="-126303366#1"/>
    <trip id="85" depart="85.00" from="50428549" to="120478529#1"/>
    <trip id="86" depart="86.00" from="-203025089#2" to="-6063421#0"/>
    <trip id="87" depart="87.00" from="-575569267#6" to="696806634#0"/>
    <trip id="88" depart="88.00" from="130285133#0" to="-854143897#2"/>
    <trip id="89" depart="89.00" from="130772954" to="696198845"/>
    <trip id="90" depart="90.00" from="45838765#0" to="436136927#5"/>
    <trip id="91" depart="91.00" from="48018639#0" to="130889749#0"/>
    <trip id="92" depart="92.00" from="131052508#0" to="466359340#1"/>
    <trip id="93" depart="93.00" from="-120478418#2" to="-476103809#1"/>
    <trip id="94" depart="94.00" from="120478696#0" to="-575569267#2"/>
    <trip id="95" depart="95.00" from="460536376#0" to="130802362#1"/>
    <trip id="96" depart="96.00" from="589551086#0" to="397319278#0"/>
    <trip id="97" depart="97.00" from="131052508#0" to="130908283#1"/>
    <trip id="98" depart="98.00" from="476103804" to="131052386#6"/>
    <trip id="99" depart="99.00" from="468436769#0" to="-203025090#3"/>
</routes>
