<?xml version="1.0" encoding="UTF-8"?>
<!-- generated on 2022-10-26 03:15:54.656858 by $Id$ UNKNOWN
  options: -n /Users/nafiulhassan/veins-5.1/examples/veins/input/washingtondc/30/washingtondc.net.xml -s 20 -e 100 -o /Users/nafiulhassan/veins-5.1/examples/veins/input/washingtondc/seed-20/100/washingtondc.trips.xml
-->
<routes xmlns:xsi="http://www.w3.org/2001/XMLSchema-instance" xsi:noNamespaceSchemaLocation="http://sumo.dlr.de/xsd/routes_file.xsd">
    <trip id="0" depart="0.00" from="6055727#0" to="468469946#0"/>
    <trip id="1" depart="1.00" from="50524889#3" to="6055387#0"/>
    <trip id="2" depart="2.00" from="-6056371#1" to="454815093#0"/>
    <trip id="3" depart="3.00" from="6055551#0" to="589539535#0"/>
    <trip id="4" depart="4.00" from="397324964#0" to="-468433803"/>
    <trip id="5" depart="5.00" from="131052297#6" to="988196201#0"/>
    <trip id="6" depart="6.00" from="-352412106" to="1049235346#0"/>
    <trip id="7" depart="7.00" from="696806632#0" to="237743944#2"/>
    <trip id="8" depart="8.00" from="-50511365#7" to="1049226223#1"/>
    <trip id="9" depart="9.00" from="6056363#2" to="120478529#1"/>
    <trip id="10" depart="10.00" from="155011689#0" to="438958617#6"/>
    <trip id="11" depart="11.00" from="520532355#0" to="298814315#0"/>
    <trip id="12" depart="12.00" from="-29961175#1" to="397321700#0"/>
    <trip id="13" depart="13.00" from="-131076063#2" to="-347003327#2"/>
    <trip id="14" depart="14.00" from="-476103809#1" to="469159256#0"/>
    <trip id="15" depart="15.00" from="-756406654#1" to="469154544"/>
    <trip id="16" depart="16.00" from="-468433793#1" to="-397318411#1"/>
    <trip id="17" depart="17.00" from="-130889749#1" to="476103801"/>
    <trip id="18" depart="18.00" from="589533518#5" to="-514191883#2"/>
    <trip id="19" depart="19.00" from="-575569267#14" to="-130285136#2"/>
    <trip id="20" depart="20.00" from="466359340#0" to="-983121554#11"/>
    <trip id="21" depart="21.00" from="-397360056#2" to="466352083#0"/>
    <trip id="22" depart="22.00" from="421258870#0" to="203119343"/>
    <trip id="23" depart="23.00" from="-438958617#11" to="45838764#0"/>
    <trip id="24" depart="24.00" from="397317311#0" to="146537587#0"/>
    <trip id="25" depart="25.00" from="-468433796" to="6059107#3"/>
    <trip id="26" depart="26.00" from="589539517#0" to="469154543"/>
    <trip id="27" depart="27.00" from="988487226" to="397327121#0"/>
    <trip id="28" depart="28.00" from="126303361#5" to="-397316524#1"/>
    <trip id="29" depart="29.00" from="435106239#0" to="323742932"/>
    <trip id="30" depart="30.00" from="202992524#3" to="987879163#0"/>
    <trip id="31" depart="31.00" from="575569267#9" to="-397316204#2"/>
    <trip id="32" depart="32.00" from="590598870#0" to="-1054351818#1"/>
    <trip id="33" depart="33.00" from="468433797#0" to="1048676964#0"/>
    <trip id="34" depart="34.00" from="49999718#1" to="696806633#2"/>
    <trip id="35" depart="35.00" from="352412039#0" to="50511365#1"/>
    <trip id="36" depart="36.00" from="-274296704#1" to="468434122#2"/>
    <trip id="37" depart="37.00" from="-397316524#1" to="274292550#0"/>
    <trip id="38" depart="38.00" from="120478695#5" to="-297382769#6"/>
    <trip id="39" depart="39.00" from="50429919" to="-347003226"/>
    <trip id="40" depart="40.00" from="-6054255#8" to="-321444898"/>
    <trip id="41" depart="41.00" from="468436769#0" to="-983121554#11"/>
    <trip id="42" depart="42.00" from="-202992524#7" to="-130908283#1"/>
    <trip id="43" depart="43.00" from="-514191882#1" to="305660797#2"/>
    <trip id="44" depart="44.00" from="-126303366#1" to="-130889749#2"/>
    <trip id="45" depart="45.00" from="468450553#0" to="345633935#7"/>
    <trip id="46" depart="46.00" from="-397329580#1" to="1036008535"/>
    <trip id="47" depart="47.00" from="-397327932#1" to="-6059107#6"/>
    <trip id="48" depart="48.00" from="130889757#0" to="-510723128#2"/>
    <trip id="49" depart="49.00" from="-49299976" to="-520537748"/>
    <trip id="50" depart="50.00" from="-998360408#0" to="397316186#0"/>
    <trip id="51" depart="51.00" from="590605528#3" to="466359338#2"/>
    <trip id="52" depart="52.00" from="26572919#0" to="-120478419#1"/>
    <trip id="53" depart="53.00" from="-469165492#2" to="439875858#6"/>
    <trip id="54" depart="54.00" from="130908290#3" to="583698431#1"/>
    <trip id="55" depart="55.00" from="6056363#3" to="-961869114#1"/>
    <trip id="56" depart="56.00" from="130788195" to="-983121553#1"/>
    <trip id="57" depart="57.00" from="468469923#0" to="-352412039#1"/>
    <trip id="58" depart="58.00" from="-6061944#3" to="589551087#0"/>
    <trip id="59" depart="59.00" from="130802362#1" to="920636360#0"/>
    <trip id="60" depart="60.00" from="130908059#0" to="543712269#2"/>
    <trip id="61" depart="61.00" from="297273916#2" to="-352412073"/>
    <trip id="62" depart="62.00" from="397327935#0" to="-50799230#5"/>
    <trip id="63" depart="63.00" from="6057581#0" to="469165487"/>
    <trip id="64" depart="64.00" from="347003330#4" to="6057595#0"/>
    <trip id="65" depart="65.00" from="397316171" to="864614824#0"/>
    <trip id="66" depart="66.00" from="48018630" to="-468469887"/>
    <trip id="67" depart="67.00" from="-983121553#1" to="583698431#0"/>
    <trip id="68" depart="68.00" from="-352412039#1" to="969732759#0"/>
    <trip id="69" depart="69.00" from="-202992520#8" to="50429917"/>
    <trip id="70" depart="70.00" from="436136929#2-AddedOnRampEdge" to="130908289#5"/>
    <trip id="71" depart="71.00" from="421268132#0" to="397327933"/>
    <trip id="72" depart="72.00" from="130772956#0" to="-6063421#3"/>
    <trip id="73" depart="73.00" from="-24238018#5" to="468433794"/>
    <trip id="74" depart="74.00" from="590581593#2" to="130802360#0"/>
    <trip id="75" depart="75.00" from="589533518#3" to="130889758#6"/>
    <trip id="76" depart="76.00" from="-6053702#4" to="513235538#0"/>
    <trip id="77" depart="77.00" from="6059056#2" to="-333922782#1"/>
    <trip id="78" depart="78.00" from="589539536#2" to="1049235346#0"/>
    <trip id="79" depart="79.00" from="50797098#8" to="-923370378#4"/>
    <trip id="80" depart="80.00" from="987878092" to="120478695#0"/>
    <trip id="81" depart="81.00" from="-50511365#2" to="-26572919#5"/>
    <trip id="82" depart="82.00" from="-397329580#1" to="-333922766#3"/>
    <trip id="83" depart="83.00" from="535520845#0" to="-130788227#3"/>
    <trip id="84" depart="84.00" from="-397318410#1" to="-575569267#2"/>
    <trip id="85" depart="85.00" from="-421077027" to="50710195#2"/>
    <trip id="86" depart="86.00" from="-125568108#2" to="468469923#0"/>
    <trip id="87" depart="87.00" from="130285119#3" to="-435424522#1"/>
    <trip id="88" depart="88.00" from="-535546520#1" to="345633935#3"/>
    <trip id="89" depart="89.00" from="-589551086#2" to="130889756#3"/>
    <trip id="90" depart="90.00" from="130889758#0" to="352411913#0"/>
    <trip id="91" depart="91.00" from="476103804" to="-920893151#1"/>
    <trip id="92" depart="92.00" from="435106240#1" to="47916247#0"/>
    <trip id="93" depart="93.00" from="-983121554#5" to="50511365#3"/>
    <trip id="94" depart="94.00" from="-305660797#1" to="298814317#0"/>
    <trip id="95" depart="95.00" from="130285133#0-AddedOnRampEdge" to="-397327932#1"/>
    <trip id="96" depart="96.00" from="468434114#0" to="583705856#1"/>
    <trip id="97" depart="97.00" from="297456132#0" to="130285119#3"/>
    <trip id="98" depart="98.00" from="6055551#0" to="987878094#0"/>
    <trip id="99" depart="99.00" from="439875858#6" to="397317311#0"/>
</routes>
