<?xml version="1.0" encoding="UTF-8"?>

<!-- generated on 2022-10-26 03:08:29 by Eclipse SUMO duarouter Version 1.10.0
	<routes>

    <input>
        <net-file value="/Users/nafiulhassan/veins-5.1/examples/veins/input/washingtondc/20/washingtondc.net.xml"/>
        <route-files value="/Users/nafiulhassan/veins-5.1/examples/veins/input/washingtondc/seed-13/20/washingtondc.trips.xml"/>
    </input>

    <output>
        <output-file value="/Users/nafiulhassan/veins-5.1/examples/veins/input/washingtondc/seed-13/20/washingtondc.rou.xml"/>
        <alternatives-output value="/Users/nafiulhassan/veins-5.1/examples/veins/input/washingtondc/seed-13/20/washingtondc.rou.alt.xml"/>
    </output>

    <report>
        <ignore-errors value="true"/>
    </report>

</configuration>
-->

	<routes>
	<vehicle id="0" depart="0.00">
        <route edges="-6055551#1 6055551#0 923370378#0 923370378#1 923370378#3 923370378#5 923370378#7 923370378#8 923370378#10 468434115#0 537114618#0 537114618#2 537114618#3 537114618#5 537114618#6 537114618#9 469165490#0 469165490#2 590581668#0 590581668#2 1049842802#0 1049842803 1049842804 589539534#0 -469165492#2 -469165492#1 6060903#0 6060903#2 6060903#3 520532363 476103809#0 298832254#0 298832261#0 298832240 864614823#0 864614823#2 468469923#0 468469931#0 468469935#0 468469935#2 468469943#0 468469939#0"/>
    </vehicle>
	<vehicle id="1" depart="0.00">
        <route edges="469154542 6057417#0 6056366#0 6056366#3 130889756#0 130889756#3 130889756#5 130889756#7 130889757#0 698748857#0 589533584#0 695842776#0 695842776#1 520537746 583705854"/>
    </vehicle>
	<vehicle id="2" depart="0.00">
        <route edges="-469165488#1 -469165487 -469165486#1 126303366#0 126303365 352412093#0 -352411913#1 -354202945#1 476103809#0 298832254#0 298832261#0 126303356#0 476103811 476103813#0 298815729#0 352412039#0 -347003226 -535546520#4"/>
    </vehicle>
	<vehicle id="3" depart="0.00">
        <route edges="-435424522#1 -308739814#1 -130788195 -130788192#2 -434444693#2 -509646034#1 -352412073 -47920785#1 -352412039#1 -298815729#1 -476103813#1 -352412083 -126303356#1 -298832261#2 -298832254#2 -476103809#1 -520532363"/>
    </vehicle>
	<vehicle id="4" depart="0.00">
        <route edges="50260020#2 50260020#4 50260020#6 333922526#0 333922526#2 347003329#0 589539518#0 589539518#2 297380210#0 297380210#2 589539537#0 397327934#0 397327932#0 397327939#0 397327938 -397327938 -397327939#1"/>
    </vehicle>
	<vehicle id="5" depart="0.00">
        <route edges="352412073 -352412073 -47920785#1 -352412039#1 -298815729#1 -723610179 -468433795#1 -203119342#1 -397327121#1 -468433796 -397327124#1 -347003327#2 -397316204#2 -509466050#2"/>
    </vehicle>
	<vehicle id="6" depart="0.00">
        <route edges="-983121553#2 983121553#2 983121553#3 469165485#0 442066186#0 353283534#0 353283534#1 323742931 126303364 323742932 -126303366#1 469165486#0 469165487 469165488#0 590581668#0 590581668#2 1049842802#0 1049842803 1049842804 589539534#0 1049287312#0 1049287312#2 126303354#0 126303354#2 345709542#0 1048676964#0 298848145#0 130285121#0 508158271 508158272#0 130889749#0 130889749#2 397316524#0 -397316522 347003330#4 589533563#0 589539518#0 589539518#2 297380210#0 297380210#2 589539537#0 120478696#0 409551583 146537579#0"/>
    </vehicle>
	<vehicle id="7" depart="0.00">
        <route edges="575569267#3 -575569267#4 520463951#0 520463951#2 479469615#0 535546520#0 535546520#3 347003226 521200399 468433791#0 347003227 756406654#0 -468433792#1 -354079210 -468433793#1 -130927087#2 130889749#0 130889749#2 397316524#0 -397316522 -298814317#2 468433794 421734517#0"/>
    </vehicle>
	<vehicle id="8" depart="0.00">
        <route edges="-130788158#1 -469165494 469165494 130788158#0 130802362#0 130802362#1 1049226224#0 1049226223#0 1049226223#1 696737929#0 696737929#1 696737929#2 130802360#0 130802360#1 469159255 353283535#0 353283535#2 469159257#0 469159256#0 469159256#3 469159259 436136927#5 436136927#6 436136927#7 121980352 -520532363 -6060903#4 -6060903#2 -6060903#1"/>
    </vehicle>
	<vehicle id="9" depart="0.00">
        <route edges="-435424521#1 -420781368#1 397327118#0 131520206#0 509325421 50799689#0 -321444900 -648026207#1 -333922462#1 333922526#0 333922526#2 589539522#0 589539523#0"/>
    </vehicle>
	<vehicle id="10" depart="0.00">
        <route edges="520537744 520537746 583705854 535520845#0 535520845#1 535520845#2 352412093#0 -352411913#1 -354202945#1 476103809#0 298832254#0 298832261#0 298832240 864614824#0 520463956#0"/>
    </vehicle>
	<vehicle id="11" depart="0.00">
        <route edges="537114618#2 -537114618#2 6062881#0 985067151 130285133#0-AddedOnRampEdge 130285133#0 6056363#0 6056363#2 6056363#3 203119341#0 696806636#0 50428539#0 50428539#2 50428539#3 50428539#5 50428539#6"/>
    </vehicle>
	<vehicle id="12" depart="0.00">
        <route edges="696806631#0 50797097#0 698748857#0 589539536#0 589539536#2 589539536#3 589539536#4 590581668#0 590581668#2 1049842802#0 1049842803 1049842804 589539534#0 1049287312#0 1049287312#2 126303354#0 126303354#2 345709542#0 1048676964#0 298848145#0 1047793071 298814315#0 508158270#0 421268132#0 439875857#0 590598870#0 509326776#0"/>
    </vehicle>
	<vehicle id="13" depart="0.00">
        <route edges="-6054255#6 6054255#6 6054255#7 -297294784#2 494175930#0 297368443#0 146537579#0 130285135#0 397319284#0 397319281#0 421734517#0 298814317#0 -347003330#3 347003328#0 -397303092#2 -397303090#1 -175873836#2 130802372#0 130802372#3 589551073#0 1051018092#0 345633934 1051018093#0 589539535#0 589533502#0 468434122#0 468434122#2 695842776#0 695842776#1 520537745 466349883 583705855"/>
    </vehicle>
	<vehicle id="14" depart="0.00">
        <route edges="298814315#0 508158270#0 468433793#0 354079210 468433792#0 347003228#0 347003229#0 347003229#2 589551073#0 1051018092#0 345633934 1051018093#0 589539535#0 589533502#0 468434122#0 468434122#2 695842776#0 695842776#1 520537745 466349883 583705856#0 583705856#1 50429925"/>
    </vehicle>
	<vehicle id="15" depart="0.00">
        <route edges="397319283 421734517#0 298814317#0 397316523#0 -397316524#1 -130889749#2 -130889749#1 130927087#0 421268132#0 439875857#0 590598870#0 509326776#0 650605162 6062204 988196201#0 29961175#0 155011691#0 50710195#0 50710195#2 297296749#0 -466352083#1 -50511365#1 -50511365#0 131520273"/>
    </vehicle>
	<vehicle id="16" depart="0.00">
        <route edges="130788192#0 -130788192#2 -321444899#2 -321444898 -321444900 -648026207#1 -333922462#1 333922526#0 333922526#2 347003329#0 333922765#0 397317310#0 397319284#0 146537575#0"/>
    </vehicle>
	<vehicle id="17" depart="0.00">
        <route edges="1049253134 45839048#0 50511237#0 297296770#0 6056532#0 45838762#1 971624710 6062876#0 252140542#0 252140542#3 589539519#0 589539519#2 589539517#0 297444238#0 -397318410#1 -397318411#1"/>
    </vehicle>
	<vehicle id="18" depart="0.00">
        <route edges="535520845#0 535520845#1 535520845#2 352412093#0 -352411913#1 -354202945#1 476103809#0 298832254#0 298832261#0 126303356#0 476103811 476103813#0 298815729#0 352412039#0 47920785#0 352412073 509646034#0 516085385 509646035#0 509646035#2"/>
    </vehicle>
	<vehicle id="19" depart="0.00">
        <route edges="983121554#4 983121554#6 983121554#7 983121554#9 466359338#0 466359338#2 438964977 -352412093#2 -421061860 126303364 323742932 -126303366#1 468434122#0 468434122#2 695842775 469157093 469157092"/>
    </vehicle>
</routes>
